 
.param Rc 200
.params C0=1.5915e-10 L0=1.5915e-10 R0=1e-09
.params omegaPump=2*(2*pi)*1000000000 G0=0.12 dG=0.01 Tramp=1e-06 Vn=3.1623e-06
.model idealDiode D(Ron=0.0 Roff=1Gig Vfwd=0.01)
L001 N003 N001 {L0} Rser=0 Rpar=1e12
C001 N001 N002 {C0} Rser=0 Rpar=1e12 RLShunt=0
R001 0 N002 {R0}
Df001 N001 N002 idealDiode
Dr001 N002 N001 idealDiode
Cp001 N001 N002 Q=({G0}+{dG}*time/{Tramp})*{C0}*cos({omegaPump}*time)*x
L002 N007 N005 {L0} Rser=0 Rpar=1e12
C002 N005 N006 {C0} Rser=0 Rpar=1e12 RLShunt=0
R002 N004 N006 {R0}
Df002 N005 N006 idealDiode
Dr002 N006 N005 idealDiode
Cp002 N005 N006 Q=({G0}+{dG}*time/{Tramp})*{C0}*cos({omegaPump}*time)*x
L003 N011 N009 {L0} Rser=0 Rpar=1e12
C003 N009 N010 {C0} Rser=0 Rpar=1e12 RLShunt=0
R003 N008 N010 {R0}
Df003 N009 N010 idealDiode
Dr003 N010 N009 idealDiode
Cp003 N009 N010 Q=({G0}+{dG}*time/{Tramp})*{C0}*cos({omegaPump}*time)*x
L004 N015 N013 {L0} Rser=0 Rpar=1e12
C004 N013 N014 {C0} Rser=0 Rpar=1e12 RLShunt=0
R004 N012 N014 {R0}
Df004 N013 N014 idealDiode
Dr004 N014 N013 idealDiode
Cp004 N013 N014 Q=({G0}+{dG}*time/{Tramp})*{C0}*cos({omegaPump}*time)*x
L005 N019 N017 {L0} Rser=0 Rpar=1e12
C005 N017 N018 {C0} Rser=0 Rpar=1e12 RLShunt=0
R005 N016 N018 {R0}
Df005 N017 N018 idealDiode
Dr005 N018 N017 idealDiode
Cp005 N017 N018 Q=({G0}+{dG}*time/{Tramp})*{C0}*cos({omegaPump}*time)*x
L006 N023 N021 {L0} Rser=0 Rpar=1e12
C006 N021 N022 {C0} Rser=0 Rpar=1e12 RLShunt=0
R006 N020 N022 {R0}
Df006 N021 N022 idealDiode
Dr006 N022 N021 idealDiode
Cp006 N021 N022 Q=({G0}+{dG}*time/{Tramp})*{C0}*cos({omegaPump}*time)*x
L007 N027 N025 {L0} Rser=0 Rpar=1e12
C007 N025 N026 {C0} Rser=0 Rpar=1e12 RLShunt=0
R007 N024 N026 {R0}
Df007 N025 N026 idealDiode
Dr007 N026 N025 idealDiode
Cp007 N025 N026 Q=({G0}+{dG}*time/{Tramp})*{C0}*cos({omegaPump}*time)*x
L008 N031 N029 {L0} Rser=0 Rpar=1e12
C008 N029 N030 {C0} Rser=0 Rpar=1e12 RLShunt=0
R008 N028 N030 {R0}
Df008 N029 N030 idealDiode
Dr008 N030 N029 idealDiode
Cp008 N029 N030 Q=({G0}+{dG}*time/{Tramp})*{C0}*cos({omegaPump}*time)*x
L009 N035 N033 {L0} Rser=0 Rpar=1e12
C009 N033 N034 {C0} Rser=0 Rpar=1e12 RLShunt=0
R009 N032 N034 {R0}
Df009 N033 N034 idealDiode
Dr009 N034 N033 idealDiode
Cp009 N033 N034 Q=({G0}+{dG}*time/{Tramp})*{C0}*cos({omegaPump}*time)*x
L010 N039 N037 {L0} Rser=0 Rpar=1e12
C010 N037 N038 {C0} Rser=0 Rpar=1e12 RLShunt=0
R010 N036 N038 {R0}
Df010 N037 N038 idealDiode
Dr010 N038 N037 idealDiode
Cp010 N037 N038 Q=({G0}+{dG}*time/{Tramp})*{C0}*cos({omegaPump}*time)*x
L011 N043 N041 {L0} Rser=0 Rpar=1e12
C011 N041 N042 {C0} Rser=0 Rpar=1e12 RLShunt=0
R011 N040 N042 {R0}
Df011 N041 N042 idealDiode
Dr011 N042 N041 idealDiode
Cp011 N041 N042 Q=({G0}+{dG}*time/{Tramp})*{C0}*cos({omegaPump}*time)*x
L012 N047 N045 {L0} Rser=0 Rpar=1e12
C012 N045 N046 {C0} Rser=0 Rpar=1e12 RLShunt=0
R012 N044 N046 {R0}
Df012 N045 N046 idealDiode
Dr012 N046 N045 idealDiode
Cp012 N045 N046 Q=({G0}+{dG}*time/{Tramp})*{C0}*cos({omegaPump}*time)*x
L013 N051 N049 {L0} Rser=0 Rpar=1e12
C013 N049 N050 {C0} Rser=0 Rpar=1e12 RLShunt=0
R013 N048 N050 {R0}
Df013 N049 N050 idealDiode
Dr013 N050 N049 idealDiode
Cp013 N049 N050 Q=({G0}+{dG}*time/{Tramp})*{C0}*cos({omegaPump}*time)*x
L014 N055 N053 {L0} Rser=0 Rpar=1e12
C014 N053 N054 {C0} Rser=0 Rpar=1e12 RLShunt=0
R014 N052 N054 {R0}
Df014 N053 N054 idealDiode
Dr014 N054 N053 idealDiode
Cp014 N053 N054 Q=({G0}+{dG}*time/{Tramp})*{C0}*cos({omegaPump}*time)*x
L015 N059 N057 {L0} Rser=0 Rpar=1e12
C015 N057 N058 {C0} Rser=0 Rpar=1e12 RLShunt=0
R015 N056 N058 {R0}
Df015 N057 N058 idealDiode
Dr015 N058 N057 idealDiode
Cp015 N057 N058 Q=({G0}+{dG}*time/{Tramp})*{C0}*cos({omegaPump}*time)*x
L016 N063 N061 {L0} Rser=0 Rpar=1e12
C016 N061 N062 {C0} Rser=0 Rpar=1e12 RLShunt=0
R016 N060 N062 {R0}
Df016 N061 N062 idealDiode
Dr016 N062 N061 idealDiode
Cp016 N061 N062 Q=({G0}+{dG}*time/{Tramp})*{C0}*cos({omegaPump}*time)*x
L017 N067 N065 {L0} Rser=0 Rpar=1e12
C017 N065 N066 {C0} Rser=0 Rpar=1e12 RLShunt=0
R017 N064 N066 {R0}
Df017 N065 N066 idealDiode
Dr017 N066 N065 idealDiode
Cp017 N065 N066 Q=({G0}+{dG}*time/{Tramp})*{C0}*cos({omegaPump}*time)*x
L018 N071 N069 {L0} Rser=0 Rpar=1e12
C018 N069 N070 {C0} Rser=0 Rpar=1e12 RLShunt=0
R018 N068 N070 {R0}
Df018 N069 N070 idealDiode
Dr018 N070 N069 idealDiode
Cp018 N069 N070 Q=({G0}+{dG}*time/{Tramp})*{C0}*cos({omegaPump}*time)*x
L019 N075 N073 {L0} Rser=0 Rpar=1e12
C019 N073 N074 {C0} Rser=0 Rpar=1e12 RLShunt=0
R019 N072 N074 {R0}
Df019 N073 N074 idealDiode
Dr019 N074 N073 idealDiode
Cp019 N073 N074 Q=({G0}+{dG}*time/{Tramp})*{C0}*cos({omegaPump}*time)*x
L020 N079 N077 {L0} Rser=0 Rpar=1e12
C020 N077 N078 {C0} Rser=0 Rpar=1e12 RLShunt=0
R020 N076 N078 {R0}
Df020 N077 N078 idealDiode
Dr020 N078 N077 idealDiode
Cp020 N077 N078 Q=({G0}+{dG}*time/{Tramp})*{C0}*cos({omegaPump}*time)*x
L021 N083 N081 {L0} Rser=0 Rpar=1e12
C021 N081 N082 {C0} Rser=0 Rpar=1e12 RLShunt=0
R021 N080 N082 {R0}
Df021 N081 N082 idealDiode
Dr021 N082 N081 idealDiode
Cp021 N081 N082 Q=({G0}+{dG}*time/{Tramp})*{C0}*cos({omegaPump}*time)*x
L022 N087 N085 {L0} Rser=0 Rpar=1e12
C022 N085 N086 {C0} Rser=0 Rpar=1e12 RLShunt=0
R022 N084 N086 {R0}
Df022 N085 N086 idealDiode
Dr022 N086 N085 idealDiode
Cp022 N085 N086 Q=({G0}+{dG}*time/{Tramp})*{C0}*cos({omegaPump}*time)*x
L023 N091 N089 {L0} Rser=0 Rpar=1e12
C023 N089 N090 {C0} Rser=0 Rpar=1e12 RLShunt=0
R023 N088 N090 {R0}
Df023 N089 N090 idealDiode
Dr023 N090 N089 idealDiode
Cp023 N089 N090 Q=({G0}+{dG}*time/{Tramp})*{C0}*cos({omegaPump}*time)*x
L024 N095 N093 {L0} Rser=0 Rpar=1e12
C024 N093 N094 {C0} Rser=0 Rpar=1e12 RLShunt=0
R024 N092 N094 {R0}
Df024 N093 N094 idealDiode
Dr024 N094 N093 idealDiode
Cp024 N093 N094 Q=({G0}+{dG}*time/{Tramp})*{C0}*cos({omegaPump}*time)*x
L025 N099 N097 {L0} Rser=0 Rpar=1e12
C025 N097 N098 {C0} Rser=0 Rpar=1e12 RLShunt=0
R025 N096 N098 {R0}
Df025 N097 N098 idealDiode
Dr025 N098 N097 idealDiode
Cp025 N097 N098 Q=({G0}+{dG}*time/{Tramp})*{C0}*cos({omegaPump}*time)*x
L026 N103 N101 {L0} Rser=0 Rpar=1e12
C026 N101 N102 {C0} Rser=0 Rpar=1e12 RLShunt=0
R026 N100 N102 {R0}
Df026 N101 N102 idealDiode
Dr026 N102 N101 idealDiode
Cp026 N101 N102 Q=({G0}+{dG}*time/{Tramp})*{C0}*cos({omegaPump}*time)*x
L027 N107 N105 {L0} Rser=0 Rpar=1e12
C027 N105 N106 {C0} Rser=0 Rpar=1e12 RLShunt=0
R027 N104 N106 {R0}
Df027 N105 N106 idealDiode
Dr027 N106 N105 idealDiode
Cp027 N105 N106 Q=({G0}+{dG}*time/{Tramp})*{C0}*cos({omegaPump}*time)*x
L028 N111 N109 {L0} Rser=0 Rpar=1e12
C028 N109 N110 {C0} Rser=0 Rpar=1e12 RLShunt=0
R028 N108 N110 {R0}
Df028 N109 N110 idealDiode
Dr028 N110 N109 idealDiode
Cp028 N109 N110 Q=({G0}+{dG}*time/{Tramp})*{C0}*cos({omegaPump}*time)*x
L029 N115 N113 {L0} Rser=0 Rpar=1e12
C029 N113 N114 {C0} Rser=0 Rpar=1e12 RLShunt=0
R029 N112 N114 {R0}
Df029 N113 N114 idealDiode
Dr029 N114 N113 idealDiode
Cp029 N113 N114 Q=({G0}+{dG}*time/{Tramp})*{C0}*cos({omegaPump}*time)*x
L030 N119 N117 {L0} Rser=0 Rpar=1e12
C030 N117 N118 {C0} Rser=0 Rpar=1e12 RLShunt=0
R030 N116 N118 {R0}
Df030 N117 N118 idealDiode
Dr030 N118 N117 idealDiode
Cp030 N117 N118 Q=({G0}+{dG}*time/{Tramp})*{C0}*cos({omegaPump}*time)*x
L031 N123 N121 {L0} Rser=0 Rpar=1e12
C031 N121 N122 {C0} Rser=0 Rpar=1e12 RLShunt=0
R031 N120 N122 {R0}
Df031 N121 N122 idealDiode
Dr031 N122 N121 idealDiode
Cp031 N121 N122 Q=({G0}+{dG}*time/{Tramp})*{C0}*cos({omegaPump}*time)*x
L032 N127 N125 {L0} Rser=0 Rpar=1e12
C032 N125 N126 {C0} Rser=0 Rpar=1e12 RLShunt=0
R032 0 N126 {R0}
Df032 N125 N126 idealDiode
Dr032 N126 N125 idealDiode
Cp032 N125 N126 Q=({G0}+{dG}*time/{Tramp})*{C0}*cos({omegaPump}*time)*x
Ra001_002 N001 N005 {Rc}
Rb001_002 N002 N006 {Rc}
Ra001_003 N001 N010 {Rc}
Rb001_003 N002 N009 {Rc}
Ra001_004 N001 N013 {Rc}
Rb001_004 N002 N014 {Rc}
Ra001_005 N001 N017 {Rc}
Rb001_005 N002 N018 {Rc}
Ra001_006 N001 N021 {Rc}
Rb001_006 N002 N022 {Rc}
Ra001_007 N001 N025 {Rc}
Rb001_007 N002 N026 {Rc}
Ra001_008 N001 N029 {Rc}
Rb001_008 N002 N030 {Rc}
Ra001_009 N001 N033 {Rc}
Rb001_009 N002 N034 {Rc}
Ra001_010 N001 N038 {Rc}
Rb001_010 N002 N037 {Rc}
Ra001_011 N001 N042 {Rc}
Rb001_011 N002 N041 {Rc}
Ra001_012 N001 N046 {Rc}
Rb001_012 N002 N045 {Rc}
Ra001_013 N001 N049 {Rc}
Rb001_013 N002 N050 {Rc}
Ra001_014 N001 N053 {Rc}
Rb001_014 N002 N054 {Rc}
Ra001_015 N001 N057 {Rc}
Rb001_015 N002 N058 {Rc}
Ra001_016 N001 N061 {Rc}
Rb001_016 N002 N062 {Rc}
Ra001_017 N001 N065 {Rc}
Rb001_017 N002 N066 {Rc}
Ra001_018 N001 N070 {Rc}
Rb001_018 N002 N069 {Rc}
Ra001_019 N001 N074 {Rc}
Rb001_019 N002 N073 {Rc}
Ra001_020 N001 N077 {Rc}
Rb001_020 N002 N078 {Rc}
Ra001_021 N001 N082 {Rc}
Rb001_021 N002 N081 {Rc}
Ra001_022 N001 N086 {Rc}
Rb001_022 N002 N085 {Rc}
Ra001_023 N001 N089 {Rc}
Rb001_023 N002 N090 {Rc}
Ra001_024 N001 N094 {Rc}
Rb001_024 N002 N093 {Rc}
Ra001_025 N001 N097 {Rc}
Rb001_025 N002 N098 {Rc}
Ra001_026 N001 N102 {Rc}
Rb001_026 N002 N101 {Rc}
Ra001_027 N001 N105 {Rc}
Rb001_027 N002 N106 {Rc}
Ra001_028 N001 N109 {Rc}
Rb001_028 N002 N110 {Rc}
Ra001_029 N001 N114 {Rc}
Rb001_029 N002 N113 {Rc}
Ra001_030 N001 N117 {Rc}
Rb001_030 N002 N118 {Rc}
Ra001_031 N001 N122 {Rc}
Rb001_031 N002 N121 {Rc}
Ra001_032 N001 N125 {Rc}
Rb001_032 N002 N126 {Rc}
Ra002_003 N005 N009 {Rc}
Rb002_003 N006 N010 {Rc}
Ra002_004 N005 N013 {Rc}
Rb002_004 N006 N014 {Rc}
Ra002_005 N005 N017 {Rc}
Rb002_005 N006 N018 {Rc}
Ra002_006 N005 N021 {Rc}
Rb002_006 N006 N022 {Rc}
Ra002_007 N005 N026 {Rc}
Rb002_007 N006 N025 {Rc}
Ra002_008 N005 N030 {Rc}
Rb002_008 N006 N029 {Rc}
Ra002_009 N005 N033 {Rc}
Rb002_009 N006 N034 {Rc}
Ra002_010 N005 N037 {Rc}
Rb002_010 N006 N038 {Rc}
Ra002_011 N005 N042 {Rc}
Rb002_011 N006 N041 {Rc}
Ra002_012 N005 N046 {Rc}
Rb002_012 N006 N045 {Rc}
Ra002_013 N005 N049 {Rc}
Rb002_013 N006 N050 {Rc}
Ra002_014 N005 N053 {Rc}
Rb002_014 N006 N054 {Rc}
Ra002_015 N005 N058 {Rc}
Rb002_015 N006 N057 {Rc}
Ra002_016 N005 N062 {Rc}
Rb002_016 N006 N061 {Rc}
Ra002_017 N005 N066 {Rc}
Rb002_017 N006 N065 {Rc}
Ra002_018 N005 N070 {Rc}
Rb002_018 N006 N069 {Rc}
Ra002_019 N005 N074 {Rc}
Rb002_019 N006 N073 {Rc}
Ra002_020 N005 N077 {Rc}
Rb002_020 N006 N078 {Rc}
Ra002_021 N005 N081 {Rc}
Rb002_021 N006 N082 {Rc}
Ra002_022 N005 N086 {Rc}
Rb002_022 N006 N085 {Rc}
Ra002_023 N005 N090 {Rc}
Rb002_023 N006 N089 {Rc}
Ra002_024 N005 N093 {Rc}
Rb002_024 N006 N094 {Rc}
Ra002_025 N005 N097 {Rc}
Rb002_025 N006 N098 {Rc}
Ra002_026 N005 N101 {Rc}
Rb002_026 N006 N102 {Rc}
Ra002_027 N005 N105 {Rc}
Rb002_027 N006 N106 {Rc}
Ra002_028 N005 N109 {Rc}
Rb002_028 N006 N110 {Rc}
Ra002_029 N005 N114 {Rc}
Rb002_029 N006 N113 {Rc}
Ra002_030 N005 N118 {Rc}
Rb002_030 N006 N117 {Rc}
Ra002_031 N005 N121 {Rc}
Rb002_031 N006 N122 {Rc}
Ra002_032 N005 N125 {Rc}
Rb002_032 N006 N126 {Rc}
Ra003_004 N009 N013 {Rc}
Rb003_004 N010 N014 {Rc}
Ra003_005 N009 N018 {Rc}
Rb003_005 N010 N017 {Rc}
Ra003_006 N009 N021 {Rc}
Rb003_006 N010 N022 {Rc}
Ra003_007 N009 N025 {Rc}
Rb003_007 N010 N026 {Rc}
Ra003_008 N009 N030 {Rc}
Rb003_008 N010 N029 {Rc}
Ra003_009 N009 N034 {Rc}
Rb003_009 N010 N033 {Rc}
Ra003_010 N009 N038 {Rc}
Rb003_010 N010 N037 {Rc}
Ra003_011 N009 N042 {Rc}
Rb003_011 N010 N041 {Rc}
Ra003_012 N009 N046 {Rc}
Rb003_012 N010 N045 {Rc}
Ra003_013 N009 N050 {Rc}
Rb003_013 N010 N049 {Rc}
Ra003_014 N009 N054 {Rc}
Rb003_014 N010 N053 {Rc}
Ra003_015 N009 N058 {Rc}
Rb003_015 N010 N057 {Rc}
Ra003_016 N009 N062 {Rc}
Rb003_016 N010 N061 {Rc}
Ra003_017 N009 N066 {Rc}
Rb003_017 N010 N065 {Rc}
Ra003_018 N009 N069 {Rc}
Rb003_018 N010 N070 {Rc}
Ra003_019 N009 N073 {Rc}
Rb003_019 N010 N074 {Rc}
Ra003_020 N009 N078 {Rc}
Rb003_020 N010 N077 {Rc}
Ra003_021 N009 N082 {Rc}
Rb003_021 N010 N081 {Rc}
Ra003_022 N009 N086 {Rc}
Rb003_022 N010 N085 {Rc}
Ra003_023 N009 N090 {Rc}
Rb003_023 N010 N089 {Rc}
Ra003_024 N009 N093 {Rc}
Rb003_024 N010 N094 {Rc}
Ra003_025 N009 N098 {Rc}
Rb003_025 N010 N097 {Rc}
Ra003_026 N009 N101 {Rc}
Rb003_026 N010 N102 {Rc}
Ra003_027 N009 N105 {Rc}
Rb003_027 N010 N106 {Rc}
Ra003_028 N009 N109 {Rc}
Rb003_028 N010 N110 {Rc}
Ra003_029 N009 N113 {Rc}
Rb003_029 N010 N114 {Rc}
Ra003_030 N009 N118 {Rc}
Rb003_030 N010 N117 {Rc}
Ra003_031 N009 N122 {Rc}
Rb003_031 N010 N121 {Rc}
Ra003_032 N009 N125 {Rc}
Rb003_032 N010 N126 {Rc}
Ra004_005 N013 N018 {Rc}
Rb004_005 N014 N017 {Rc}
Ra004_006 N013 N022 {Rc}
Rb004_006 N014 N021 {Rc}
Ra004_007 N013 N026 {Rc}
Rb004_007 N014 N025 {Rc}
Ra004_008 N013 N029 {Rc}
Rb004_008 N014 N030 {Rc}
Ra004_009 N013 N034 {Rc}
Rb004_009 N014 N033 {Rc}
Ra004_010 N013 N038 {Rc}
Rb004_010 N014 N037 {Rc}
Ra004_011 N013 N042 {Rc}
Rb004_011 N014 N041 {Rc}
Ra004_012 N013 N045 {Rc}
Rb004_012 N014 N046 {Rc}
Ra004_013 N013 N049 {Rc}
Rb004_013 N014 N050 {Rc}
Ra004_014 N013 N054 {Rc}
Rb004_014 N014 N053 {Rc}
Ra004_015 N013 N057 {Rc}
Rb004_015 N014 N058 {Rc}
Ra004_016 N013 N062 {Rc}
Rb004_016 N014 N061 {Rc}
Ra004_017 N013 N066 {Rc}
Rb004_017 N014 N065 {Rc}
Ra004_018 N013 N070 {Rc}
Rb004_018 N014 N069 {Rc}
Ra004_019 N013 N074 {Rc}
Rb004_019 N014 N073 {Rc}
Ra004_020 N013 N078 {Rc}
Rb004_020 N014 N077 {Rc}
Ra004_021 N013 N081 {Rc}
Rb004_021 N014 N082 {Rc}
Ra004_022 N013 N086 {Rc}
Rb004_022 N014 N085 {Rc}
Ra004_023 N013 N089 {Rc}
Rb004_023 N014 N090 {Rc}
Ra004_024 N013 N093 {Rc}
Rb004_024 N014 N094 {Rc}
Ra004_025 N013 N097 {Rc}
Rb004_025 N014 N098 {Rc}
Ra004_026 N013 N102 {Rc}
Rb004_026 N014 N101 {Rc}
Ra004_027 N013 N105 {Rc}
Rb004_027 N014 N106 {Rc}
Ra004_028 N013 N110 {Rc}
Rb004_028 N014 N109 {Rc}
Ra004_029 N013 N114 {Rc}
Rb004_029 N014 N113 {Rc}
Ra004_030 N013 N117 {Rc}
Rb004_030 N014 N118 {Rc}
Ra004_031 N013 N121 {Rc}
Rb004_031 N014 N122 {Rc}
Ra004_032 N013 N126 {Rc}
Rb004_032 N014 N125 {Rc}
Ra005_006 N017 N021 {Rc}
Rb005_006 N018 N022 {Rc}
Ra005_007 N017 N025 {Rc}
Rb005_007 N018 N026 {Rc}
Ra005_008 N017 N030 {Rc}
Rb005_008 N018 N029 {Rc}
Ra005_009 N017 N034 {Rc}
Rb005_009 N018 N033 {Rc}
Ra005_010 N017 N038 {Rc}
Rb005_010 N018 N037 {Rc}
Ra005_011 N017 N041 {Rc}
Rb005_011 N018 N042 {Rc}
Ra005_012 N017 N045 {Rc}
Rb005_012 N018 N046 {Rc}
Ra005_013 N017 N050 {Rc}
Rb005_013 N018 N049 {Rc}
Ra005_014 N017 N053 {Rc}
Rb005_014 N018 N054 {Rc}
Ra005_015 N017 N058 {Rc}
Rb005_015 N018 N057 {Rc}
Ra005_016 N017 N061 {Rc}
Rb005_016 N018 N062 {Rc}
Ra005_017 N017 N066 {Rc}
Rb005_017 N018 N065 {Rc}
Ra005_018 N017 N069 {Rc}
Rb005_018 N018 N070 {Rc}
Ra005_019 N017 N073 {Rc}
Rb005_019 N018 N074 {Rc}
Ra005_020 N017 N078 {Rc}
Rb005_020 N018 N077 {Rc}
Ra005_021 N017 N081 {Rc}
Rb005_021 N018 N082 {Rc}
Ra005_022 N017 N086 {Rc}
Rb005_022 N018 N085 {Rc}
Ra005_023 N017 N089 {Rc}
Rb005_023 N018 N090 {Rc}
Ra005_024 N017 N093 {Rc}
Rb005_024 N018 N094 {Rc}
Ra005_025 N017 N097 {Rc}
Rb005_025 N018 N098 {Rc}
Ra005_026 N017 N101 {Rc}
Rb005_026 N018 N102 {Rc}
Ra005_027 N017 N106 {Rc}
Rb005_027 N018 N105 {Rc}
Ra005_028 N017 N110 {Rc}
Rb005_028 N018 N109 {Rc}
Ra005_029 N017 N114 {Rc}
Rb005_029 N018 N113 {Rc}
Ra005_030 N017 N117 {Rc}
Rb005_030 N018 N118 {Rc}
Ra005_031 N017 N122 {Rc}
Rb005_031 N018 N121 {Rc}
Ra005_032 N017 N126 {Rc}
Rb005_032 N018 N125 {Rc}
Ra006_007 N021 N025 {Rc}
Rb006_007 N022 N026 {Rc}
Ra006_008 N021 N029 {Rc}
Rb006_008 N022 N030 {Rc}
Ra006_009 N021 N034 {Rc}
Rb006_009 N022 N033 {Rc}
Ra006_010 N021 N037 {Rc}
Rb006_010 N022 N038 {Rc}
Ra006_011 N021 N041 {Rc}
Rb006_011 N022 N042 {Rc}
Ra006_012 N021 N045 {Rc}
Rb006_012 N022 N046 {Rc}
Ra006_013 N021 N050 {Rc}
Rb006_013 N022 N049 {Rc}
Ra006_014 N021 N053 {Rc}
Rb006_014 N022 N054 {Rc}
Ra006_015 N021 N058 {Rc}
Rb006_015 N022 N057 {Rc}
Ra006_016 N021 N061 {Rc}
Rb006_016 N022 N062 {Rc}
Ra006_017 N021 N066 {Rc}
Rb006_017 N022 N065 {Rc}
Ra006_018 N021 N070 {Rc}
Rb006_018 N022 N069 {Rc}
Ra006_019 N021 N074 {Rc}
Rb006_019 N022 N073 {Rc}
Ra006_020 N021 N078 {Rc}
Rb006_020 N022 N077 {Rc}
Ra006_021 N021 N081 {Rc}
Rb006_021 N022 N082 {Rc}
Ra006_022 N021 N086 {Rc}
Rb006_022 N022 N085 {Rc}
Ra006_023 N021 N090 {Rc}
Rb006_023 N022 N089 {Rc}
Ra006_024 N021 N094 {Rc}
Rb006_024 N022 N093 {Rc}
Ra006_025 N021 N098 {Rc}
Rb006_025 N022 N097 {Rc}
Ra006_026 N021 N101 {Rc}
Rb006_026 N022 N102 {Rc}
Ra006_027 N021 N105 {Rc}
Rb006_027 N022 N106 {Rc}
Ra006_028 N021 N109 {Rc}
Rb006_028 N022 N110 {Rc}
Ra006_029 N021 N114 {Rc}
Rb006_029 N022 N113 {Rc}
Ra006_030 N021 N118 {Rc}
Rb006_030 N022 N117 {Rc}
Ra006_031 N021 N122 {Rc}
Rb006_031 N022 N121 {Rc}
Ra006_032 N021 N125 {Rc}
Rb006_032 N022 N126 {Rc}
Ra007_008 N025 N030 {Rc}
Rb007_008 N026 N029 {Rc}
Ra007_009 N025 N033 {Rc}
Rb007_009 N026 N034 {Rc}
Ra007_010 N025 N038 {Rc}
Rb007_010 N026 N037 {Rc}
Ra007_011 N025 N041 {Rc}
Rb007_011 N026 N042 {Rc}
Ra007_012 N025 N046 {Rc}
Rb007_012 N026 N045 {Rc}
Ra007_013 N025 N050 {Rc}
Rb007_013 N026 N049 {Rc}
Ra007_014 N025 N053 {Rc}
Rb007_014 N026 N054 {Rc}
Ra007_015 N025 N058 {Rc}
Rb007_015 N026 N057 {Rc}
Ra007_016 N025 N062 {Rc}
Rb007_016 N026 N061 {Rc}
Ra007_017 N025 N066 {Rc}
Rb007_017 N026 N065 {Rc}
Ra007_018 N025 N070 {Rc}
Rb007_018 N026 N069 {Rc}
Ra007_019 N025 N074 {Rc}
Rb007_019 N026 N073 {Rc}
Ra007_020 N025 N078 {Rc}
Rb007_020 N026 N077 {Rc}
Ra007_021 N025 N081 {Rc}
Rb007_021 N026 N082 {Rc}
Ra007_022 N025 N086 {Rc}
Rb007_022 N026 N085 {Rc}
Ra007_023 N025 N089 {Rc}
Rb007_023 N026 N090 {Rc}
Ra007_024 N025 N093 {Rc}
Rb007_024 N026 N094 {Rc}
Ra007_025 N025 N098 {Rc}
Rb007_025 N026 N097 {Rc}
Ra007_026 N025 N102 {Rc}
Rb007_026 N026 N101 {Rc}
Ra007_027 N025 N106 {Rc}
Rb007_027 N026 N105 {Rc}
Ra007_028 N025 N110 {Rc}
Rb007_028 N026 N109 {Rc}
Ra007_029 N025 N114 {Rc}
Rb007_029 N026 N113 {Rc}
Ra007_030 N025 N117 {Rc}
Rb007_030 N026 N118 {Rc}
Ra007_031 N025 N122 {Rc}
Rb007_031 N026 N121 {Rc}
Ra007_032 N025 N126 {Rc}
Rb007_032 N026 N125 {Rc}
Ra008_009 N029 N034 {Rc}
Rb008_009 N030 N033 {Rc}
Ra008_010 N029 N037 {Rc}
Rb008_010 N030 N038 {Rc}
Ra008_011 N029 N041 {Rc}
Rb008_011 N030 N042 {Rc}
Ra008_012 N029 N046 {Rc}
Rb008_012 N030 N045 {Rc}
Ra008_013 N029 N050 {Rc}
Rb008_013 N030 N049 {Rc}
Ra008_014 N029 N053 {Rc}
Rb008_014 N030 N054 {Rc}
Ra008_015 N029 N057 {Rc}
Rb008_015 N030 N058 {Rc}
Ra008_016 N029 N061 {Rc}
Rb008_016 N030 N062 {Rc}
Ra008_017 N029 N065 {Rc}
Rb008_017 N030 N066 {Rc}
Ra008_018 N029 N070 {Rc}
Rb008_018 N030 N069 {Rc}
Ra008_019 N029 N074 {Rc}
Rb008_019 N030 N073 {Rc}
Ra008_020 N029 N078 {Rc}
Rb008_020 N030 N077 {Rc}
Ra008_021 N029 N082 {Rc}
Rb008_021 N030 N081 {Rc}
Ra008_022 N029 N085 {Rc}
Rb008_022 N030 N086 {Rc}
Ra008_023 N029 N089 {Rc}
Rb008_023 N030 N090 {Rc}
Ra008_024 N029 N094 {Rc}
Rb008_024 N030 N093 {Rc}
Ra008_025 N029 N097 {Rc}
Rb008_025 N030 N098 {Rc}
Ra008_026 N029 N101 {Rc}
Rb008_026 N030 N102 {Rc}
Ra008_027 N029 N105 {Rc}
Rb008_027 N030 N106 {Rc}
Ra008_028 N029 N109 {Rc}
Rb008_028 N030 N110 {Rc}
Ra008_029 N029 N114 {Rc}
Rb008_029 N030 N113 {Rc}
Ra008_030 N029 N118 {Rc}
Rb008_030 N030 N117 {Rc}
Ra008_031 N029 N121 {Rc}
Rb008_031 N030 N122 {Rc}
Ra008_032 N029 N125 {Rc}
Rb008_032 N030 N126 {Rc}
Ra009_010 N033 N037 {Rc}
Rb009_010 N034 N038 {Rc}
Ra009_011 N033 N041 {Rc}
Rb009_011 N034 N042 {Rc}
Ra009_012 N033 N045 {Rc}
Rb009_012 N034 N046 {Rc}
Ra009_013 N033 N050 {Rc}
Rb009_013 N034 N049 {Rc}
Ra009_014 N033 N053 {Rc}
Rb009_014 N034 N054 {Rc}
Ra009_015 N033 N058 {Rc}
Rb009_015 N034 N057 {Rc}
Ra009_016 N033 N061 {Rc}
Rb009_016 N034 N062 {Rc}
Ra009_017 N033 N065 {Rc}
Rb009_017 N034 N066 {Rc}
Ra009_018 N033 N070 {Rc}
Rb009_018 N034 N069 {Rc}
Ra009_019 N033 N074 {Rc}
Rb009_019 N034 N073 {Rc}
Ra009_020 N033 N078 {Rc}
Rb009_020 N034 N077 {Rc}
Ra009_021 N033 N081 {Rc}
Rb009_021 N034 N082 {Rc}
Ra009_022 N033 N086 {Rc}
Rb009_022 N034 N085 {Rc}
Ra009_023 N033 N089 {Rc}
Rb009_023 N034 N090 {Rc}
Ra009_024 N033 N094 {Rc}
Rb009_024 N034 N093 {Rc}
Ra009_025 N033 N097 {Rc}
Rb009_025 N034 N098 {Rc}
Ra009_026 N033 N101 {Rc}
Rb009_026 N034 N102 {Rc}
Ra009_027 N033 N106 {Rc}
Rb009_027 N034 N105 {Rc}
Ra009_028 N033 N109 {Rc}
Rb009_028 N034 N110 {Rc}
Ra009_029 N033 N114 {Rc}
Rb009_029 N034 N113 {Rc}
Ra009_030 N033 N117 {Rc}
Rb009_030 N034 N118 {Rc}
Ra009_031 N033 N122 {Rc}
Rb009_031 N034 N121 {Rc}
Ra009_032 N033 N126 {Rc}
Rb009_032 N034 N125 {Rc}
Ra010_011 N037 N042 {Rc}
Rb010_011 N038 N041 {Rc}
Ra010_012 N037 N046 {Rc}
Rb010_012 N038 N045 {Rc}
Ra010_013 N037 N049 {Rc}
Rb010_013 N038 N050 {Rc}
Ra010_014 N037 N054 {Rc}
Rb010_014 N038 N053 {Rc}
Ra010_015 N037 N057 {Rc}
Rb010_015 N038 N058 {Rc}
Ra010_016 N037 N061 {Rc}
Rb010_016 N038 N062 {Rc}
Ra010_017 N037 N066 {Rc}
Rb010_017 N038 N065 {Rc}
Ra010_018 N037 N069 {Rc}
Rb010_018 N038 N070 {Rc}
Ra010_019 N037 N073 {Rc}
Rb010_019 N038 N074 {Rc}
Ra010_020 N037 N078 {Rc}
Rb010_020 N038 N077 {Rc}
Ra010_021 N037 N081 {Rc}
Rb010_021 N038 N082 {Rc}
Ra010_022 N037 N085 {Rc}
Rb010_022 N038 N086 {Rc}
Ra010_023 N037 N089 {Rc}
Rb010_023 N038 N090 {Rc}
Ra010_024 N037 N094 {Rc}
Rb010_024 N038 N093 {Rc}
Ra010_025 N037 N097 {Rc}
Rb010_025 N038 N098 {Rc}
Ra010_026 N037 N102 {Rc}
Rb010_026 N038 N101 {Rc}
Ra010_027 N037 N106 {Rc}
Rb010_027 N038 N105 {Rc}
Ra010_028 N037 N109 {Rc}
Rb010_028 N038 N110 {Rc}
Ra010_029 N037 N114 {Rc}
Rb010_029 N038 N113 {Rc}
Ra010_030 N037 N117 {Rc}
Rb010_030 N038 N118 {Rc}
Ra010_031 N037 N122 {Rc}
Rb010_031 N038 N121 {Rc}
Ra010_032 N037 N126 {Rc}
Rb010_032 N038 N125 {Rc}
Ra011_012 N041 N045 {Rc}
Rb011_012 N042 N046 {Rc}
Ra011_013 N041 N050 {Rc}
Rb011_013 N042 N049 {Rc}
Ra011_014 N041 N054 {Rc}
Rb011_014 N042 N053 {Rc}
Ra011_015 N041 N058 {Rc}
Rb011_015 N042 N057 {Rc}
Ra011_016 N041 N061 {Rc}
Rb011_016 N042 N062 {Rc}
Ra011_017 N041 N066 {Rc}
Rb011_017 N042 N065 {Rc}
Ra011_018 N041 N069 {Rc}
Rb011_018 N042 N070 {Rc}
Ra011_019 N041 N073 {Rc}
Rb011_019 N042 N074 {Rc}
Ra011_020 N041 N077 {Rc}
Rb011_020 N042 N078 {Rc}
Ra011_021 N041 N082 {Rc}
Rb011_021 N042 N081 {Rc}
Ra011_022 N041 N085 {Rc}
Rb011_022 N042 N086 {Rc}
Ra011_023 N041 N090 {Rc}
Rb011_023 N042 N089 {Rc}
Ra011_024 N041 N094 {Rc}
Rb011_024 N042 N093 {Rc}
Ra011_025 N041 N097 {Rc}
Rb011_025 N042 N098 {Rc}
Ra011_026 N041 N101 {Rc}
Rb011_026 N042 N102 {Rc}
Ra011_027 N041 N105 {Rc}
Rb011_027 N042 N106 {Rc}
Ra011_028 N041 N109 {Rc}
Rb011_028 N042 N110 {Rc}
Ra011_029 N041 N114 {Rc}
Rb011_029 N042 N113 {Rc}
Ra011_030 N041 N118 {Rc}
Rb011_030 N042 N117 {Rc}
Ra011_031 N041 N122 {Rc}
Rb011_031 N042 N121 {Rc}
Ra011_032 N041 N125 {Rc}
Rb011_032 N042 N126 {Rc}
Ra012_013 N045 N049 {Rc}
Rb012_013 N046 N050 {Rc}
Ra012_014 N045 N053 {Rc}
Rb012_014 N046 N054 {Rc}
Ra012_015 N045 N058 {Rc}
Rb012_015 N046 N057 {Rc}
Ra012_016 N045 N062 {Rc}
Rb012_016 N046 N061 {Rc}
Ra012_017 N045 N065 {Rc}
Rb012_017 N046 N066 {Rc}
Ra012_018 N045 N070 {Rc}
Rb012_018 N046 N069 {Rc}
Ra012_019 N045 N074 {Rc}
Rb012_019 N046 N073 {Rc}
Ra012_020 N045 N077 {Rc}
Rb012_020 N046 N078 {Rc}
Ra012_021 N045 N082 {Rc}
Rb012_021 N046 N081 {Rc}
Ra012_022 N045 N086 {Rc}
Rb012_022 N046 N085 {Rc}
Ra012_023 N045 N089 {Rc}
Rb012_023 N046 N090 {Rc}
Ra012_024 N045 N093 {Rc}
Rb012_024 N046 N094 {Rc}
Ra012_025 N045 N097 {Rc}
Rb012_025 N046 N098 {Rc}
Ra012_026 N045 N101 {Rc}
Rb012_026 N046 N102 {Rc}
Ra012_027 N045 N105 {Rc}
Rb012_027 N046 N106 {Rc}
Ra012_028 N045 N109 {Rc}
Rb012_028 N046 N110 {Rc}
Ra012_029 N045 N113 {Rc}
Rb012_029 N046 N114 {Rc}
Ra012_030 N045 N117 {Rc}
Rb012_030 N046 N118 {Rc}
Ra012_031 N045 N121 {Rc}
Rb012_031 N046 N122 {Rc}
Ra012_032 N045 N125 {Rc}
Rb012_032 N046 N126 {Rc}
Ra013_014 N049 N053 {Rc}
Rb013_014 N050 N054 {Rc}
Ra013_015 N049 N058 {Rc}
Rb013_015 N050 N057 {Rc}
Ra013_016 N049 N062 {Rc}
Rb013_016 N050 N061 {Rc}
Ra013_017 N049 N065 {Rc}
Rb013_017 N050 N066 {Rc}
Ra013_018 N049 N070 {Rc}
Rb013_018 N050 N069 {Rc}
Ra013_019 N049 N074 {Rc}
Rb013_019 N050 N073 {Rc}
Ra013_020 N049 N078 {Rc}
Rb013_020 N050 N077 {Rc}
Ra013_021 N049 N082 {Rc}
Rb013_021 N050 N081 {Rc}
Ra013_022 N049 N085 {Rc}
Rb013_022 N050 N086 {Rc}
Ra013_023 N049 N089 {Rc}
Rb013_023 N050 N090 {Rc}
Ra013_024 N049 N093 {Rc}
Rb013_024 N050 N094 {Rc}
Ra013_025 N049 N097 {Rc}
Rb013_025 N050 N098 {Rc}
Ra013_026 N049 N101 {Rc}
Rb013_026 N050 N102 {Rc}
Ra013_027 N049 N105 {Rc}
Rb013_027 N050 N106 {Rc}
Ra013_028 N049 N109 {Rc}
Rb013_028 N050 N110 {Rc}
Ra013_029 N049 N114 {Rc}
Rb013_029 N050 N113 {Rc}
Ra013_030 N049 N118 {Rc}
Rb013_030 N050 N117 {Rc}
Ra013_031 N049 N122 {Rc}
Rb013_031 N050 N121 {Rc}
Ra013_032 N049 N126 {Rc}
Rb013_032 N050 N125 {Rc}
Ra014_015 N053 N057 {Rc}
Rb014_015 N054 N058 {Rc}
Ra014_016 N053 N062 {Rc}
Rb014_016 N054 N061 {Rc}
Ra014_017 N053 N065 {Rc}
Rb014_017 N054 N066 {Rc}
Ra014_018 N053 N069 {Rc}
Rb014_018 N054 N070 {Rc}
Ra014_019 N053 N073 {Rc}
Rb014_019 N054 N074 {Rc}
Ra014_020 N053 N077 {Rc}
Rb014_020 N054 N078 {Rc}
Ra014_021 N053 N082 {Rc}
Rb014_021 N054 N081 {Rc}
Ra014_022 N053 N085 {Rc}
Rb014_022 N054 N086 {Rc}
Ra014_023 N053 N090 {Rc}
Rb014_023 N054 N089 {Rc}
Ra014_024 N053 N094 {Rc}
Rb014_024 N054 N093 {Rc}
Ra014_025 N053 N097 {Rc}
Rb014_025 N054 N098 {Rc}
Ra014_026 N053 N102 {Rc}
Rb014_026 N054 N101 {Rc}
Ra014_027 N053 N105 {Rc}
Rb014_027 N054 N106 {Rc}
Ra014_028 N053 N109 {Rc}
Rb014_028 N054 N110 {Rc}
Ra014_029 N053 N114 {Rc}
Rb014_029 N054 N113 {Rc}
Ra014_030 N053 N117 {Rc}
Rb014_030 N054 N118 {Rc}
Ra014_031 N053 N122 {Rc}
Rb014_031 N054 N121 {Rc}
Ra014_032 N053 N126 {Rc}
Rb014_032 N054 N125 {Rc}
Ra015_016 N057 N062 {Rc}
Rb015_016 N058 N061 {Rc}
Ra015_017 N057 N065 {Rc}
Rb015_017 N058 N066 {Rc}
Ra015_018 N057 N069 {Rc}
Rb015_018 N058 N070 {Rc}
Ra015_019 N057 N074 {Rc}
Rb015_019 N058 N073 {Rc}
Ra015_020 N057 N077 {Rc}
Rb015_020 N058 N078 {Rc}
Ra015_021 N057 N082 {Rc}
Rb015_021 N058 N081 {Rc}
Ra015_022 N057 N085 {Rc}
Rb015_022 N058 N086 {Rc}
Ra015_023 N057 N089 {Rc}
Rb015_023 N058 N090 {Rc}
Ra015_024 N057 N093 {Rc}
Rb015_024 N058 N094 {Rc}
Ra015_025 N057 N097 {Rc}
Rb015_025 N058 N098 {Rc}
Ra015_026 N057 N101 {Rc}
Rb015_026 N058 N102 {Rc}
Ra015_027 N057 N106 {Rc}
Rb015_027 N058 N105 {Rc}
Ra015_028 N057 N109 {Rc}
Rb015_028 N058 N110 {Rc}
Ra015_029 N057 N113 {Rc}
Rb015_029 N058 N114 {Rc}
Ra015_030 N057 N118 {Rc}
Rb015_030 N058 N117 {Rc}
Ra015_031 N057 N122 {Rc}
Rb015_031 N058 N121 {Rc}
Ra015_032 N057 N125 {Rc}
Rb015_032 N058 N126 {Rc}
Ra016_017 N061 N065 {Rc}
Rb016_017 N062 N066 {Rc}
Ra016_018 N061 N069 {Rc}
Rb016_018 N062 N070 {Rc}
Ra016_019 N061 N074 {Rc}
Rb016_019 N062 N073 {Rc}
Ra016_020 N061 N077 {Rc}
Rb016_020 N062 N078 {Rc}
Ra016_021 N061 N081 {Rc}
Rb016_021 N062 N082 {Rc}
Ra016_022 N061 N086 {Rc}
Rb016_022 N062 N085 {Rc}
Ra016_023 N061 N090 {Rc}
Rb016_023 N062 N089 {Rc}
Ra016_024 N061 N094 {Rc}
Rb016_024 N062 N093 {Rc}
Ra016_025 N061 N098 {Rc}
Rb016_025 N062 N097 {Rc}
Ra016_026 N061 N102 {Rc}
Rb016_026 N062 N101 {Rc}
Ra016_027 N061 N105 {Rc}
Rb016_027 N062 N106 {Rc}
Ra016_028 N061 N110 {Rc}
Rb016_028 N062 N109 {Rc}
Ra016_029 N061 N114 {Rc}
Rb016_029 N062 N113 {Rc}
Ra016_030 N061 N118 {Rc}
Rb016_030 N062 N117 {Rc}
Ra016_031 N061 N122 {Rc}
Rb016_031 N062 N121 {Rc}
Ra016_032 N061 N126 {Rc}
Rb016_032 N062 N125 {Rc}
Ra017_018 N065 N070 {Rc}
Rb017_018 N066 N069 {Rc}
Ra017_019 N065 N074 {Rc}
Rb017_019 N066 N073 {Rc}
Ra017_020 N065 N078 {Rc}
Rb017_020 N066 N077 {Rc}
Ra017_021 N065 N081 {Rc}
Rb017_021 N066 N082 {Rc}
Ra017_022 N065 N086 {Rc}
Rb017_022 N066 N085 {Rc}
Ra017_023 N065 N089 {Rc}
Rb017_023 N066 N090 {Rc}
Ra017_024 N065 N094 {Rc}
Rb017_024 N066 N093 {Rc}
Ra017_025 N065 N097 {Rc}
Rb017_025 N066 N098 {Rc}
Ra017_026 N065 N102 {Rc}
Rb017_026 N066 N101 {Rc}
Ra017_027 N065 N106 {Rc}
Rb017_027 N066 N105 {Rc}
Ra017_028 N065 N110 {Rc}
Rb017_028 N066 N109 {Rc}
Ra017_029 N065 N114 {Rc}
Rb017_029 N066 N113 {Rc}
Ra017_030 N065 N117 {Rc}
Rb017_030 N066 N118 {Rc}
Ra017_031 N065 N122 {Rc}
Rb017_031 N066 N121 {Rc}
Ra017_032 N065 N125 {Rc}
Rb017_032 N066 N126 {Rc}
Ra018_019 N069 N074 {Rc}
Rb018_019 N070 N073 {Rc}
Ra018_020 N069 N078 {Rc}
Rb018_020 N070 N077 {Rc}
Ra018_021 N069 N081 {Rc}
Rb018_021 N070 N082 {Rc}
Ra018_022 N069 N086 {Rc}
Rb018_022 N070 N085 {Rc}
Ra018_023 N069 N089 {Rc}
Rb018_023 N070 N090 {Rc}
Ra018_024 N069 N094 {Rc}
Rb018_024 N070 N093 {Rc}
Ra018_025 N069 N097 {Rc}
Rb018_025 N070 N098 {Rc}
Ra018_026 N069 N101 {Rc}
Rb018_026 N070 N102 {Rc}
Ra018_027 N069 N106 {Rc}
Rb018_027 N070 N105 {Rc}
Ra018_028 N069 N110 {Rc}
Rb018_028 N070 N109 {Rc}
Ra018_029 N069 N113 {Rc}
Rb018_029 N070 N114 {Rc}
Ra018_030 N069 N118 {Rc}
Rb018_030 N070 N117 {Rc}
Ra018_031 N069 N121 {Rc}
Rb018_031 N070 N122 {Rc}
Ra018_032 N069 N126 {Rc}
Rb018_032 N070 N125 {Rc}
Ra019_020 N073 N077 {Rc}
Rb019_020 N074 N078 {Rc}
Ra019_021 N073 N081 {Rc}
Rb019_021 N074 N082 {Rc}
Ra019_022 N073 N086 {Rc}
Rb019_022 N074 N085 {Rc}
Ra019_023 N073 N089 {Rc}
Rb019_023 N074 N090 {Rc}
Ra019_024 N073 N093 {Rc}
Rb019_024 N074 N094 {Rc}
Ra019_025 N073 N098 {Rc}
Rb019_025 N074 N097 {Rc}
Ra019_026 N073 N101 {Rc}
Rb019_026 N074 N102 {Rc}
Ra019_027 N073 N105 {Rc}
Rb019_027 N074 N106 {Rc}
Ra019_028 N073 N110 {Rc}
Rb019_028 N074 N109 {Rc}
Ra019_029 N073 N114 {Rc}
Rb019_029 N074 N113 {Rc}
Ra019_030 N073 N117 {Rc}
Rb019_030 N074 N118 {Rc}
Ra019_031 N073 N122 {Rc}
Rb019_031 N074 N121 {Rc}
Ra019_032 N073 N126 {Rc}
Rb019_032 N074 N125 {Rc}
Ra020_021 N077 N082 {Rc}
Rb020_021 N078 N081 {Rc}
Ra020_022 N077 N086 {Rc}
Rb020_022 N078 N085 {Rc}
Ra020_023 N077 N089 {Rc}
Rb020_023 N078 N090 {Rc}
Ra020_024 N077 N094 {Rc}
Rb020_024 N078 N093 {Rc}
Ra020_025 N077 N098 {Rc}
Rb020_025 N078 N097 {Rc}
Ra020_026 N077 N101 {Rc}
Rb020_026 N078 N102 {Rc}
Ra020_027 N077 N106 {Rc}
Rb020_027 N078 N105 {Rc}
Ra020_028 N077 N109 {Rc}
Rb020_028 N078 N110 {Rc}
Ra020_029 N077 N113 {Rc}
Rb020_029 N078 N114 {Rc}
Ra020_030 N077 N117 {Rc}
Rb020_030 N078 N118 {Rc}
Ra020_031 N077 N122 {Rc}
Rb020_031 N078 N121 {Rc}
Ra020_032 N077 N125 {Rc}
Rb020_032 N078 N126 {Rc}
Ra021_022 N081 N085 {Rc}
Rb021_022 N082 N086 {Rc}
Ra021_023 N081 N090 {Rc}
Rb021_023 N082 N089 {Rc}
Ra021_024 N081 N093 {Rc}
Rb021_024 N082 N094 {Rc}
Ra021_025 N081 N098 {Rc}
Rb021_025 N082 N097 {Rc}
Ra021_026 N081 N102 {Rc}
Rb021_026 N082 N101 {Rc}
Ra021_027 N081 N105 {Rc}
Rb021_027 N082 N106 {Rc}
Ra021_028 N081 N110 {Rc}
Rb021_028 N082 N109 {Rc}
Ra021_029 N081 N114 {Rc}
Rb021_029 N082 N113 {Rc}
Ra021_030 N081 N117 {Rc}
Rb021_030 N082 N118 {Rc}
Ra021_031 N081 N121 {Rc}
Rb021_031 N082 N122 {Rc}
Ra021_032 N081 N126 {Rc}
Rb021_032 N082 N125 {Rc}
Ra022_023 N085 N089 {Rc}
Rb022_023 N086 N090 {Rc}
Ra022_024 N085 N093 {Rc}
Rb022_024 N086 N094 {Rc}
Ra022_025 N085 N097 {Rc}
Rb022_025 N086 N098 {Rc}
Ra022_026 N085 N101 {Rc}
Rb022_026 N086 N102 {Rc}
Ra022_027 N085 N105 {Rc}
Rb022_027 N086 N106 {Rc}
Ra022_028 N085 N110 {Rc}
Rb022_028 N086 N109 {Rc}
Ra022_029 N085 N113 {Rc}
Rb022_029 N086 N114 {Rc}
Ra022_030 N085 N117 {Rc}
Rb022_030 N086 N118 {Rc}