 
.param Rc 200
.params C0=1.5915e-10 L0=1.5915e-10 R0=1e-09
.params omegaPump=2*(2*pi)*1000000000 G0=0.295 dG=0 Tramp=1e-06 Vn=3.1623e-06
.model idealDiode D(Ron=0.0 Roff=1Gig Vfwd=0.01)
L001 N003 N001 {L0} Rser=0 Rpar=1e12
C001 N001 N002 {C0} Rser=0 Rpar=1e12 RLShunt=0
R001 0 N002 1e-09
Df001 N001 N002 idealDiode
Dr001 N002 N001 idealDiode
Cp001 N001 N002 Q=0.295*{C0}*cos({omegaPump}*time)*x
L002 N007 N005 {L0} Rser=0 Rpar=1e12
C002 N005 N006 {C0} Rser=0 Rpar=1e12 RLShunt=0
R002 N004 N006 1e-09
Df002 N005 N006 idealDiode
Dr002 N006 N005 idealDiode
Cp002 N005 N006 Q=0.295*{C0}*cos({omegaPump}*time)*x
L003 N011 N009 {L0} Rser=0 Rpar=1e12
C003 N009 N010 {C0} Rser=0 Rpar=1e12 RLShunt=0
R003 N008 N010 1e-09
Df003 N009 N010 idealDiode
Dr003 N010 N009 idealDiode
Cp003 N009 N010 Q=0.295*{C0}*cos({omegaPump}*time)*x
L004 N015 N013 {L0} Rser=0 Rpar=1e12
C004 N013 N014 {C0} Rser=0 Rpar=1e12 RLShunt=0
R004 N012 N014 1e-09
Df004 N013 N014 idealDiode
Dr004 N014 N013 idealDiode
Cp004 N013 N014 Q=0.295*{C0}*cos({omegaPump}*time)*x
L005 N019 N017 {L0} Rser=0 Rpar=1e12
C005 N017 N018 {C0} Rser=0 Rpar=1e12 RLShunt=0
R005 N016 N018 1e-09
Df005 N017 N018 idealDiode
Dr005 N018 N017 idealDiode
Cp005 N017 N018 Q=0.295*{C0}*cos({omegaPump}*time)*x
L006 N023 N021 {L0} Rser=0 Rpar=1e12
C006 N021 N022 {C0} Rser=0 Rpar=1e12 RLShunt=0
R006 N020 N022 1e-09
Df006 N021 N022 idealDiode
Dr006 N022 N021 idealDiode
Cp006 N021 N022 Q=0.295*{C0}*cos({omegaPump}*time)*x
L007 N027 N025 {L0} Rser=0 Rpar=1e12
C007 N025 N026 {C0} Rser=0 Rpar=1e12 RLShunt=0
R007 N024 N026 1e-09
Df007 N025 N026 idealDiode
Dr007 N026 N025 idealDiode
Cp007 N025 N026 Q=0.295*{C0}*cos({omegaPump}*time)*x
L008 N031 N029 {L0} Rser=0 Rpar=1e12
C008 N029 N030 {C0} Rser=0 Rpar=1e12 RLShunt=0
R008 N028 N030 1e-09
Df008 N029 N030 idealDiode
Dr008 N030 N029 idealDiode
Cp008 N029 N030 Q=0.295*{C0}*cos({omegaPump}*time)*x
L009 N035 N033 {L0} Rser=0 Rpar=1e12
C009 N033 N034 {C0} Rser=0 Rpar=1e12 RLShunt=0
R009 N032 N034 1e-09
Df009 N033 N034 idealDiode
Dr009 N034 N033 idealDiode
Cp009 N033 N034 Q=0.295*{C0}*cos({omegaPump}*time)*x
L010 N039 N037 {L0} Rser=0 Rpar=1e12
C010 N037 N038 {C0} Rser=0 Rpar=1e12 RLShunt=0
R010 N036 N038 1e-09
Df010 N037 N038 idealDiode
Dr010 N038 N037 idealDiode
Cp010 N037 N038 Q=0.295*{C0}*cos({omegaPump}*time)*x
L011 N043 N041 {L0} Rser=0 Rpar=1e12
C011 N041 N042 {C0} Rser=0 Rpar=1e12 RLShunt=0
R011 N040 N042 1e-09
Df011 N041 N042 idealDiode
Dr011 N042 N041 idealDiode
Cp011 N041 N042 Q=0.295*{C0}*cos({omegaPump}*time)*x
L012 N047 N045 {L0} Rser=0 Rpar=1e12
C012 N045 N046 {C0} Rser=0 Rpar=1e12 RLShunt=0
R012 N044 N046 1e-09
Df012 N045 N046 idealDiode
Dr012 N046 N045 idealDiode
Cp012 N045 N046 Q=0.295*{C0}*cos({omegaPump}*time)*x
L013 N051 N049 {L0} Rser=0 Rpar=1e12
C013 N049 N050 {C0} Rser=0 Rpar=1e12 RLShunt=0
R013 N048 N050 1e-09
Df013 N049 N050 idealDiode
Dr013 N050 N049 idealDiode
Cp013 N049 N050 Q=0.295*{C0}*cos({omegaPump}*time)*x
L014 N055 N053 {L0} Rser=0 Rpar=1e12
C014 N053 N054 {C0} Rser=0 Rpar=1e12 RLShunt=0
R014 N052 N054 1e-09
Df014 N053 N054 idealDiode
Dr014 N054 N053 idealDiode
Cp014 N053 N054 Q=0.295*{C0}*cos({omegaPump}*time)*x
L015 N059 N057 {L0} Rser=0 Rpar=1e12
C015 N057 N058 {C0} Rser=0 Rpar=1e12 RLShunt=0
R015 N056 N058 1e-09
Df015 N057 N058 idealDiode
Dr015 N058 N057 idealDiode
Cp015 N057 N058 Q=0.295*{C0}*cos({omegaPump}*time)*x
L016 N063 N061 {L0} Rser=0 Rpar=1e12
C016 N061 N062 {C0} Rser=0 Rpar=1e12 RLShunt=0
R016 N060 N062 1e-09
Df016 N061 N062 idealDiode
Dr016 N062 N061 idealDiode
Cp016 N061 N062 Q=0.295*{C0}*cos({omegaPump}*time)*x
L017 N067 N065 {L0} Rser=0 Rpar=1e12
C017 N065 N066 {C0} Rser=0 Rpar=1e12 RLShunt=0
R017 N064 N066 1e-09
Df017 N065 N066 idealDiode
Dr017 N066 N065 idealDiode
Cp017 N065 N066 Q=0.295*{C0}*cos({omegaPump}*time)*x
L018 N071 N069 {L0} Rser=0 Rpar=1e12
C018 N069 N070 {C0} Rser=0 Rpar=1e12 RLShunt=0
R018 N068 N070 1e-09
Df018 N069 N070 idealDiode
Dr018 N070 N069 idealDiode
Cp018 N069 N070 Q=0.295*{C0}*cos({omegaPump}*time)*x
L019 N075 N073 {L0} Rser=0 Rpar=1e12
C019 N073 N074 {C0} Rser=0 Rpar=1e12 RLShunt=0
R019 N072 N074 1e-09
Df019 N073 N074 idealDiode
Dr019 N074 N073 idealDiode
Cp019 N073 N074 Q=0.295*{C0}*cos({omegaPump}*time)*x
L020 N079 N077 {L0} Rser=0 Rpar=1e12
C020 N077 N078 {C0} Rser=0 Rpar=1e12 RLShunt=0
R020 N076 N078 1e-09
Df020 N077 N078 idealDiode
Dr020 N078 N077 idealDiode
Cp020 N077 N078 Q=0.295*{C0}*cos({omegaPump}*time)*x
L021 N083 N081 {L0} Rser=0 Rpar=1e12
C021 N081 N082 {C0} Rser=0 Rpar=1e12 RLShunt=0
R021 N080 N082 1e-09
Df021 N081 N082 idealDiode
Dr021 N082 N081 idealDiode
Cp021 N081 N082 Q=0.295*{C0}*cos({omegaPump}*time)*x
L022 N087 N085 {L0} Rser=0 Rpar=1e12
C022 N085 N086 {C0} Rser=0 Rpar=1e12 RLShunt=0
R022 N084 N086 1e-09
Df022 N085 N086 idealDiode
Dr022 N086 N085 idealDiode
Cp022 N085 N086 Q=0.295*{C0}*cos({omegaPump}*time)*x
L023 N091 N089 {L0} Rser=0 Rpar=1e12
C023 N089 N090 {C0} Rser=0 Rpar=1e12 RLShunt=0
R023 N088 N090 1e-09
Df023 N089 N090 idealDiode
Dr023 N090 N089 idealDiode
Cp023 N089 N090 Q=0.295*{C0}*cos({omegaPump}*time)*x
L024 N095 N093 {L0} Rser=0 Rpar=1e12
C024 N093 N094 {C0} Rser=0 Rpar=1e12 RLShunt=0
R024 N092 N094 1e-09
Df024 N093 N094 idealDiode
Dr024 N094 N093 idealDiode
Cp024 N093 N094 Q=0.295*{C0}*cos({omegaPump}*time)*x
L025 N099 N097 {L0} Rser=0 Rpar=1e12
C025 N097 N098 {C0} Rser=0 Rpar=1e12 RLShunt=0
R025 N096 N098 1e-09
Df025 N097 N098 idealDiode
Dr025 N098 N097 idealDiode
Cp025 N097 N098 Q=0.295*{C0}*cos({omegaPump}*time)*x
L026 N103 N101 {L0} Rser=0 Rpar=1e12
C026 N101 N102 {C0} Rser=0 Rpar=1e12 RLShunt=0
R026 N100 N102 1e-09
Df026 N101 N102 idealDiode
Dr026 N102 N101 idealDiode
Cp026 N101 N102 Q=0.295*{C0}*cos({omegaPump}*time)*x
L027 N107 N105 {L0} Rser=0 Rpar=1e12
C027 N105 N106 {C0} Rser=0 Rpar=1e12 RLShunt=0
R027 N104 N106 1e-09
Df027 N105 N106 idealDiode
Dr027 N106 N105 idealDiode
Cp027 N105 N106 Q=0.295*{C0}*cos({omegaPump}*time)*x
L028 N111 N109 {L0} Rser=0 Rpar=1e12
C028 N109 N110 {C0} Rser=0 Rpar=1e12 RLShunt=0
R028 N108 N110 1e-09
Df028 N109 N110 idealDiode
Dr028 N110 N109 idealDiode
Cp028 N109 N110 Q=0.295*{C0}*cos({omegaPump}*time)*x
L029 N115 N113 {L0} Rser=0 Rpar=1e12
C029 N113 N114 {C0} Rser=0 Rpar=1e12 RLShunt=0
R029 N112 N114 1e-09
Df029 N113 N114 idealDiode
Dr029 N114 N113 idealDiode
Cp029 N113 N114 Q=0.295*{C0}*cos({omegaPump}*time)*x
L030 N119 N117 {L0} Rser=0 Rpar=1e12
C030 N117 N118 {C0} Rser=0 Rpar=1e12 RLShunt=0
R030 N116 N118 1e-09
Df030 N117 N118 idealDiode
Dr030 N118 N117 idealDiode
Cp030 N117 N118 Q=0.295*{C0}*cos({omegaPump}*time)*x
L031 N123 N121 {L0} Rser=0 Rpar=1e12
C031 N121 N122 {C0} Rser=0 Rpar=1e12 RLShunt=0
R031 N120 N122 1e-09
Df031 N121 N122 idealDiode
Dr031 N122 N121 idealDiode
Cp031 N121 N122 Q=0.295*{C0}*cos({omegaPump}*time)*x
L032 N127 N125 {L0} Rser=0 Rpar=1e12
C032 N125 N126 {C0} Rser=0 Rpar=1e12 RLShunt=0
R032 N124 N126 1e-09
Df032 N125 N126 idealDiode
Dr032 N126 N125 idealDiode
Cp032 N125 N126 Q=0.295*{C0}*cos({omegaPump}*time)*x
L033 N131 N129 {L0} Rser=0 Rpar=1e12
C033 N129 N130 {C0} Rser=0 Rpar=1e12 RLShunt=0
R033 N128 N130 1e-09
Df033 N129 N130 idealDiode
Dr033 N130 N129 idealDiode
Cp033 N129 N130 Q=0.295*{C0}*cos({omegaPump}*time)*x
L034 N135 N133 {L0} Rser=0 Rpar=1e12
C034 N133 N134 {C0} Rser=0 Rpar=1e12 RLShunt=0
R034 N132 N134 1e-09
Df034 N133 N134 idealDiode
Dr034 N134 N133 idealDiode
Cp034 N133 N134 Q=0.295*{C0}*cos({omegaPump}*time)*x
L035 N139 N137 {L0} Rser=0 Rpar=1e12
C035 N137 N138 {C0} Rser=0 Rpar=1e12 RLShunt=0
R035 N136 N138 1e-09
Df035 N137 N138 idealDiode
Dr035 N138 N137 idealDiode
Cp035 N137 N138 Q=0.295*{C0}*cos({omegaPump}*time)*x
L036 N143 N141 {L0} Rser=0 Rpar=1e12
C036 N141 N142 {C0} Rser=0 Rpar=1e12 RLShunt=0
R036 N140 N142 1e-09
Df036 N141 N142 idealDiode
Dr036 N142 N141 idealDiode
Cp036 N141 N142 Q=0.295*{C0}*cos({omegaPump}*time)*x
L037 N147 N145 {L0} Rser=0 Rpar=1e12
C037 N145 N146 {C0} Rser=0 Rpar=1e12 RLShunt=0
R037 N144 N146 1e-09
Df037 N145 N146 idealDiode
Dr037 N146 N145 idealDiode
Cp037 N145 N146 Q=0.295*{C0}*cos({omegaPump}*time)*x
L038 N151 N149 {L0} Rser=0 Rpar=1e12
C038 N149 N150 {C0} Rser=0 Rpar=1e12 RLShunt=0
R038 N148 N150 1e-09
Df038 N149 N150 idealDiode
Dr038 N150 N149 idealDiode
Cp038 N149 N150 Q=0.295*{C0}*cos({omegaPump}*time)*x
L039 N155 N153 {L0} Rser=0 Rpar=1e12
C039 N153 N154 {C0} Rser=0 Rpar=1e12 RLShunt=0
R039 N152 N154 1e-09
Df039 N153 N154 idealDiode
Dr039 N154 N153 idealDiode
Cp039 N153 N154 Q=0.295*{C0}*cos({omegaPump}*time)*x
L040 N159 N157 {L0} Rser=0 Rpar=1e12
C040 N157 N158 {C0} Rser=0 Rpar=1e12 RLShunt=0
R040 N156 N158 1e-09
Df040 N157 N158 idealDiode
Dr040 N158 N157 idealDiode
Cp040 N157 N158 Q=0.295*{C0}*cos({omegaPump}*time)*x
L041 N163 N161 {L0} Rser=0 Rpar=1e12
C041 N161 N162 {C0} Rser=0 Rpar=1e12 RLShunt=0
R041 N160 N162 1e-09
Df041 N161 N162 idealDiode
Dr041 N162 N161 idealDiode
Cp041 N161 N162 Q=0.295*{C0}*cos({omegaPump}*time)*x
L042 N167 N165 {L0} Rser=0 Rpar=1e12
C042 N165 N166 {C0} Rser=0 Rpar=1e12 RLShunt=0
R042 N164 N166 1e-09
Df042 N165 N166 idealDiode
Dr042 N166 N165 idealDiode
Cp042 N165 N166 Q=0.295*{C0}*cos({omegaPump}*time)*x
L043 N171 N169 {L0} Rser=0 Rpar=1e12
C043 N169 N170 {C0} Rser=0 Rpar=1e12 RLShunt=0
R043 N168 N170 1e-09
Df043 N169 N170 idealDiode
Dr043 N170 N169 idealDiode
Cp043 N169 N170 Q=0.295*{C0}*cos({omegaPump}*time)*x
L044 N175 N173 {L0} Rser=0 Rpar=1e12
C044 N173 N174 {C0} Rser=0 Rpar=1e12 RLShunt=0
R044 N172 N174 1e-09
Df044 N173 N174 idealDiode
Dr044 N174 N173 idealDiode
Cp044 N173 N174 Q=0.295*{C0}*cos({omegaPump}*time)*x
L045 N179 N177 {L0} Rser=0 Rpar=1e12
C045 N177 N178 {C0} Rser=0 Rpar=1e12 RLShunt=0
R045 N176 N178 1e-09
Df045 N177 N178 idealDiode
Dr045 N178 N177 idealDiode
Cp045 N177 N178 Q=0.295*{C0}*cos({omegaPump}*time)*x
L046 N183 N181 {L0} Rser=0 Rpar=1e12
C046 N181 N182 {C0} Rser=0 Rpar=1e12 RLShunt=0
R046 N180 N182 1e-09
Df046 N181 N182 idealDiode
Dr046 N182 N181 idealDiode
Cp046 N181 N182 Q=0.295*{C0}*cos({omegaPump}*time)*x
L047 N187 N185 {L0} Rser=0 Rpar=1e12
C047 N185 N186 {C0} Rser=0 Rpar=1e12 RLShunt=0
R047 N184 N186 1e-09
Df047 N185 N186 idealDiode
Dr047 N186 N185 idealDiode
Cp047 N185 N186 Q=0.295*{C0}*cos({omegaPump}*time)*x
L048 N191 N189 {L0} Rser=0 Rpar=1e12
C048 N189 N190 {C0} Rser=0 Rpar=1e12 RLShunt=0
R048 N188 N190 1e-09
Df048 N189 N190 idealDiode
Dr048 N190 N189 idealDiode
Cp048 N189 N190 Q=0.295*{C0}*cos({omegaPump}*time)*x
L049 N195 N193 {L0} Rser=0 Rpar=1e12
C049 N193 N194 {C0} Rser=0 Rpar=1e12 RLShunt=0
R049 N192 N194 1e-09
Df049 N193 N194 idealDiode
Dr049 N194 N193 idealDiode
Cp049 N193 N194 Q=0.295*{C0}*cos({omegaPump}*time)*x
L050 N199 N197 {L0} Rser=0 Rpar=1e12
C050 N197 N198 {C0} Rser=0 Rpar=1e12 RLShunt=0
R050 N196 N198 1e-09
Df050 N197 N198 idealDiode
Dr050 N198 N197 idealDiode
Cp050 N197 N198 Q=0.295*{C0}*cos({omegaPump}*time)*x
L051 N203 N201 {L0} Rser=0 Rpar=1e12
C051 N201 N202 {C0} Rser=0 Rpar=1e12 RLShunt=0
R051 N200 N202 1e-09
Df051 N201 N202 idealDiode
Dr051 N202 N201 idealDiode
Cp051 N201 N202 Q=0.295*{C0}*cos({omegaPump}*time)*x
L052 N207 N205 {L0} Rser=0 Rpar=1e12
C052 N205 N206 {C0} Rser=0 Rpar=1e12 RLShunt=0
R052 N204 N206 1e-09
Df052 N205 N206 idealDiode
Dr052 N206 N205 idealDiode
Cp052 N205 N206 Q=0.295*{C0}*cos({omegaPump}*time)*x
L053 N211 N209 {L0} Rser=0 Rpar=1e12
C053 N209 N210 {C0} Rser=0 Rpar=1e12 RLShunt=0
R053 N208 N210 1e-09
Df053 N209 N210 idealDiode
Dr053 N210 N209 idealDiode
Cp053 N209 N210 Q=0.295*{C0}*cos({omegaPump}*time)*x
L054 N215 N213 {L0} Rser=0 Rpar=1e12
C054 N213 N214 {C0} Rser=0 Rpar=1e12 RLShunt=0
R054 N212 N214 1e-09
Df054 N213 N214 idealDiode
Dr054 N214 N213 idealDiode
Cp054 N213 N214 Q=0.295*{C0}*cos({omegaPump}*time)*x
L055 N219 N217 {L0} Rser=0 Rpar=1e12
C055 N217 N218 {C0} Rser=0 Rpar=1e12 RLShunt=0
R055 N216 N218 1e-09
Df055 N217 N218 idealDiode
Dr055 N218 N217 idealDiode
Cp055 N217 N218 Q=0.295*{C0}*cos({omegaPump}*time)*x
L056 N223 N221 {L0} Rser=0 Rpar=1e12
C056 N221 N222 {C0} Rser=0 Rpar=1e12 RLShunt=0
R056 N220 N222 1e-09
Df056 N221 N222 idealDiode
Dr056 N222 N221 idealDiode
Cp056 N221 N222 Q=0.295*{C0}*cos({omegaPump}*time)*x
L057 N227 N225 {L0} Rser=0 Rpar=1e12
C057 N225 N226 {C0} Rser=0 Rpar=1e12 RLShunt=0
R057 N224 N226 1e-09
Df057 N225 N226 idealDiode
Dr057 N226 N225 idealDiode
Cp057 N225 N226 Q=0.295*{C0}*cos({omegaPump}*time)*x
L058 N231 N229 {L0} Rser=0 Rpar=1e12
C058 N229 N230 {C0} Rser=0 Rpar=1e12 RLShunt=0
R058 N228 N230 1e-09
Df058 N229 N230 idealDiode
Dr058 N230 N229 idealDiode
Cp058 N229 N230 Q=0.295*{C0}*cos({omegaPump}*time)*x
L059 N235 N233 {L0} Rser=0 Rpar=1e12
C059 N233 N234 {C0} Rser=0 Rpar=1e12 RLShunt=0
R059 N232 N234 1e-09
Df059 N233 N234 idealDiode
Dr059 N234 N233 idealDiode
Cp059 N233 N234 Q=0.295*{C0}*cos({omegaPump}*time)*x
L060 N239 N237 {L0} Rser=0 Rpar=1e12
C060 N237 N238 {C0} Rser=0 Rpar=1e12 RLShunt=0
R060 0 N238 1e-09
Df060 N237 N238 idealDiode
Dr060 N238 N237 idealDiode
Cp060 N237 N238 Q=0.295*{C0}*cos({omegaPump}*time)*x
Ra1001_002 N001 N005 {2*Rc}
Rb1001_002 N002 N006 {2*Rc}
Ra2001_002 N001 N006 {2*Rc}
Rb2001_002 N002 N005 {2*Rc}
Ra1001_003 N001 N009 {2*Rc}
Rb1001_003 N002 N010 {2*Rc}
Ra2001_003 N001 N010 {2*Rc}
Rb2001_003 N002 N009 {2*Rc}
Ra1001_004 N001 N013 {2*Rc}
Rb1001_004 N002 N014 {2*Rc}
Ra2001_004 N001 N014 {2*Rc}
Rb2001_004 N002 N013 {2*Rc}
Ra001_005 N001 N018 {Rc}
Rb001_005 N002 N017 {Rc}
Ra1001_006 N001 N021 {2*Rc}
Rb1001_006 N002 N022 {2*Rc}
Ra2001_006 N001 N022 {2*Rc}
Rb2001_006 N002 N021 {2*Rc}
Ra1001_007 N001 N025 {2*Rc}
Rb1001_007 N002 N026 {2*Rc}
Ra2001_007 N001 N026 {2*Rc}
Rb2001_007 N002 N025 {2*Rc}
Ra1001_008 N001 N029 {2*Rc}
Rb1001_008 N002 N030 {2*Rc}
Ra2001_008 N001 N030 {2*Rc}
Rb2001_008 N002 N029 {2*Rc}
Ra1001_009 N001 N033 {2*Rc}
Rb1001_009 N002 N034 {2*Rc}
Ra2001_009 N001 N034 {2*Rc}
Rb2001_009 N002 N033 {2*Rc}
Ra001_010 N001 N038 {Rc}
Rb001_010 N002 N037 {Rc}
Ra001_011 N001 N042 {Rc}
Rb001_011 N002 N041 {Rc}
Ra001_012 N001 N046 {Rc}
Rb001_012 N002 N045 {Rc}
Ra1001_013 N001 N049 {2*Rc}
Rb1001_013 N002 N050 {2*Rc}
Ra2001_013 N001 N050 {2*Rc}
Rb2001_013 N002 N049 {2*Rc}
Ra001_014 N001 N054 {Rc}
Rb001_014 N002 N053 {Rc}
Ra001_015 N001 N058 {Rc}
Rb001_015 N002 N057 {Rc}
Ra001_016 N001 N062 {Rc}
Rb001_016 N002 N061 {Rc}
Ra1001_017 N001 N065 {2*Rc}
Rb1001_017 N002 N066 {2*Rc}
Ra2001_017 N001 N066 {2*Rc}
Rb2001_017 N002 N065 {2*Rc}
Ra001_018 N001 N070 {Rc}
Rb001_018 N002 N069 {Rc}
Ra001_019 N001 N074 {Rc}
Rb001_019 N002 N073 {Rc}
Ra001_020 N001 N078 {Rc}
Rb001_020 N002 N077 {Rc}
Ra001_021 N001 N082 {Rc}
Rb001_021 N002 N081 {Rc}
Ra1001_022 N001 N085 {2*Rc}
Rb1001_022 N002 N086 {2*Rc}
Ra2001_022 N001 N086 {2*Rc}
Rb2001_022 N002 N085 {2*Rc}
Ra001_023 N001 N090 {Rc}
Rb001_023 N002 N089 {Rc}
Ra1001_024 N001 N093 {2*Rc}
Rb1001_024 N002 N094 {2*Rc}
Ra2001_024 N001 N094 {2*Rc}
Rb2001_024 N002 N093 {2*Rc}
Ra1001_025 N001 N097 {2*Rc}
Rb1001_025 N002 N098 {2*Rc}
Ra2001_025 N001 N098 {2*Rc}
Rb2001_025 N002 N097 {2*Rc}
Ra001_026 N001 N102 {Rc}
Rb001_026 N002 N101 {Rc}
Ra1001_027 N001 N105 {2*Rc}
Rb1001_027 N002 N106 {2*Rc}
Ra2001_027 N001 N106 {2*Rc}
Rb2001_027 N002 N105 {2*Rc}
Ra001_028 N001 N110 {Rc}
Rb001_028 N002 N109 {Rc}
Ra1001_029 N001 N113 {2*Rc}
Rb1001_029 N002 N114 {2*Rc}
Ra2001_029 N001 N114 {2*Rc}
Rb2001_029 N002 N113 {2*Rc}
Ra001_030 N001 N118 {Rc}
Rb001_030 N002 N117 {Rc}
Ra1001_031 N001 N121 {2*Rc}
Rb1001_031 N002 N122 {2*Rc}
Ra2001_031 N001 N122 {2*Rc}
Rb2001_031 N002 N121 {2*Rc}
Ra001_032 N001 N126 {Rc}
Rb001_032 N002 N125 {Rc}
Ra001_033 N001 N130 {Rc}
Rb001_033 N002 N129 {Rc}
Ra001_034 N001 N134 {Rc}
Rb001_034 N002 N133 {Rc}
Ra1001_035 N001 N137 {2*Rc}
Rb1001_035 N002 N138 {2*Rc}
Ra2001_035 N001 N138 {2*Rc}
Rb2001_035 N002 N137 {2*Rc}
Ra001_036 N001 N142 {Rc}
Rb001_036 N002 N141 {Rc}
Ra1001_037 N001 N145 {2*Rc}
Rb1001_037 N002 N146 {2*Rc}
Ra2001_037 N001 N146 {2*Rc}
Rb2001_037 N002 N145 {2*Rc}
Ra1001_038 N001 N149 {2*Rc}
Rb1001_038 N002 N150 {2*Rc}
Ra2001_038 N001 N150 {2*Rc}
Rb2001_038 N002 N149 {2*Rc}
Ra001_039 N001 N154 {Rc}
Rb001_039 N002 N153 {Rc}
Ra1001_040 N001 N157 {2*Rc}
Rb1001_040 N002 N158 {2*Rc}
Ra2001_040 N001 N158 {2*Rc}
Rb2001_040 N002 N157 {2*Rc}
Ra1001_041 N001 N161 {2*Rc}
Rb1001_041 N002 N162 {2*Rc}
Ra2001_041 N001 N162 {2*Rc}
Rb2001_041 N002 N161 {2*Rc}
Ra1001_042 N001 N165 {2*Rc}
Rb1001_042 N002 N166 {2*Rc}
Ra2001_042 N001 N166 {2*Rc}
Rb2001_042 N002 N165 {2*Rc}
Ra1001_043 N001 N169 {2*Rc}
Rb1001_043 N002 N170 {2*Rc}
Ra2001_043 N001 N170 {2*Rc}
Rb2001_043 N002 N169 {2*Rc}
Ra1001_044 N001 N173 {2*Rc}
Rb1001_044 N002 N174 {2*Rc}
Ra2001_044 N001 N174 {2*Rc}
Rb2001_044 N002 N173 {2*Rc}
Ra1001_045 N001 N177 {2*Rc}
Rb1001_045 N002 N178 {2*Rc}
Ra2001_045 N001 N178 {2*Rc}
Rb2001_045 N002 N177 {2*Rc}
Ra001_046 N001 N182 {Rc}
Rb001_046 N002 N181 {Rc}
Ra001_047 N001 N186 {Rc}
Rb001_047 N002 N185 {Rc}
Ra1001_048 N001 N189 {2*Rc}
Rb1001_048 N002 N190 {2*Rc}
Ra2001_048 N001 N190 {2*Rc}
Rb2001_048 N002 N189 {2*Rc}
Ra1001_049 N001 N193 {2*Rc}
Rb1001_049 N002 N194 {2*Rc}
Ra2001_049 N001 N194 {2*Rc}
Rb2001_049 N002 N193 {2*Rc}
Ra1001_050 N001 N197 {2*Rc}
Rb1001_050 N002 N198 {2*Rc}
Ra2001_050 N001 N198 {2*Rc}
Rb2001_050 N002 N197 {2*Rc}
Ra001_051 N001 N202 {Rc}
Rb001_051 N002 N201 {Rc}
Ra1001_052 N001 N205 {2*Rc}
Rb1001_052 N002 N206 {2*Rc}
Ra2001_052 N001 N206 {2*Rc}
Rb2001_052 N002 N205 {2*Rc}
Ra1001_053 N001 N209 {2*Rc}
Rb1001_053 N002 N210 {2*Rc}
Ra2001_053 N001 N210 {2*Rc}
Rb2001_053 N002 N209 {2*Rc}
Ra1001_054 N001 N213 {2*Rc}
Rb1001_054 N002 N214 {2*Rc}
Ra2001_054 N001 N214 {2*Rc}
Rb2001_054 N002 N213 {2*Rc}
Ra001_055 N001 N218 {Rc}
Rb001_055 N002 N217 {Rc}
Ra001_056 N001 N222 {Rc}
Rb001_056 N002 N221 {Rc}
Ra001_057 N001 N226 {Rc}
Rb001_057 N002 N225 {Rc}
Ra001_058 N001 N230 {Rc}
Rb001_058 N002 N229 {Rc}
Ra001_059 N001 N234 {Rc}
Rb001_059 N002 N233 {Rc}
Ra1001_060 N001 N237 {2*Rc}
Rb1001_060 N002 N238 {2*Rc}
Ra2001_060 N001 N238 {2*Rc}
Rb2001_060 N002 N237 {2*Rc}
Ra002_003 N005 N010 {Rc}
Rb002_003 N006 N009 {Rc}
Ra1002_004 N005 N013 {2*Rc}
Rb1002_004 N006 N014 {2*Rc}
Ra2002_004 N005 N014 {2*Rc}
Rb2002_004 N006 N013 {2*Rc}
Ra002_005 N005 N018 {Rc}
Rb002_005 N006 N017 {Rc}
Ra1002_006 N005 N021 {2*Rc}
Rb1002_006 N006 N022 {2*Rc}
Ra2002_006 N005 N022 {2*Rc}
Rb2002_006 N006 N021 {2*Rc}
Ra002_007 N005 N026 {Rc}
Rb002_007 N006 N025 {Rc}
Ra1002_008 N005 N029 {2*Rc}
Rb1002_008 N006 N030 {2*Rc}
Ra2002_008 N005 N030 {2*Rc}
Rb2002_008 N006 N029 {2*Rc}
Ra1002_009 N005 N033 {2*Rc}
Rb1002_009 N006 N034 {2*Rc}
Ra2002_009 N005 N034 {2*Rc}
Rb2002_009 N006 N033 {2*Rc}
Ra002_010 N005 N038 {Rc}
Rb002_010 N006 N037 {Rc}
Ra002_011 N005 N042 {Rc}
Rb002_011 N006 N041 {Rc}
Ra002_012 N005 N046 {Rc}
Rb002_012 N006 N045 {Rc}
Ra1002_013 N005 N049 {2*Rc}
Rb1002_013 N006 N050 {2*Rc}
Ra2002_013 N005 N050 {2*Rc}
Rb2002_013 N006 N049 {2*Rc}
Ra1002_014 N005 N053 {2*Rc}
Rb1002_014 N006 N054 {2*Rc}
Ra2002_014 N005 N054 {2*Rc}
Rb2002_014 N006 N053 {2*Rc}
Ra1002_015 N005 N057 {2*Rc}
Rb1002_015 N006 N058 {2*Rc}
Ra2002_015 N005 N058 {2*Rc}
Rb2002_015 N006 N057 {2*Rc}
Ra1002_016 N005 N061 {2*Rc}
Rb1002_016 N006 N062 {2*Rc}
Ra2002_016 N005 N062 {2*Rc}
Rb2002_016 N006 N061 {2*Rc}
Ra1002_017 N005 N065 {2*Rc}
Rb1002_017 N006 N066 {2*Rc}
Ra2002_017 N005 N066 {2*Rc}
Rb2002_017 N006 N065 {2*Rc}
Ra1002_018 N005 N069 {2*Rc}
Rb1002_018 N006 N070 {2*Rc}
Ra2002_018 N005 N070 {2*Rc}
Rb2002_018 N006 N069 {2*Rc}
Ra002_019 N005 N074 {Rc}
Rb002_019 N006 N073 {Rc}
Ra002_020 N005 N078 {Rc}
Rb002_020 N006 N077 {Rc}
Ra1002_021 N005 N081 {2*Rc}
Rb1002_021 N006 N082 {2*Rc}
Ra2002_021 N005 N082 {2*Rc}
Rb2002_021 N006 N081 {2*Rc}
Ra1002_022 N005 N085 {2*Rc}
Rb1002_022 N006 N086 {2*Rc}
Ra2002_022 N005 N086 {2*Rc}
Rb2002_022 N006 N085 {2*Rc}
Ra002_023 N005 N090 {Rc}
Rb002_023 N006 N089 {Rc}
Ra1002_024 N005 N093 {2*Rc}
Rb1002_024 N006 N094 {2*Rc}
Ra2002_024 N005 N094 {2*Rc}
Rb2002_024 N006 N093 {2*Rc}
Ra1002_025 N005 N097 {2*Rc}
Rb1002_025 N006 N098 {2*Rc}
Ra2002_025 N005 N098 {2*Rc}
Rb2002_025 N006 N097 {2*Rc}
Ra002_026 N005 N102 {Rc}
Rb002_026 N006 N101 {Rc}
Ra1002_027 N005 N105 {2*Rc}
Rb1002_027 N006 N106 {2*Rc}
Ra2002_027 N005 N106 {2*Rc}
Rb2002_027 N006 N105 {2*Rc}
Ra002_028 N005 N110 {Rc}
Rb002_028 N006 N109 {Rc}
Ra002_029 N005 N114 {Rc}
Rb002_029 N006 N113 {Rc}
Ra1002_030 N005 N117 {2*Rc}
Rb1002_030 N006 N118 {2*Rc}
Ra2002_030 N005 N118 {2*Rc}
Rb2002_030 N006 N117 {2*Rc}
Ra002_031 N005 N122 {Rc}
Rb002_031 N006 N121 {Rc}
Ra002_032 N005 N126 {Rc}
Rb002_032 N006 N125 {Rc}
Ra1002_033 N005 N129 {2*Rc}
Rb1002_033 N006 N130 {2*Rc}
Ra2002_033 N005 N130 {2*Rc}
Rb2002_033 N006 N129 {2*Rc}
Ra002_034 N005 N134 {Rc}
Rb002_034 N006 N133 {Rc}
Ra002_035 N005 N138 {Rc}
Rb002_035 N006 N137 {Rc}
Ra002_036 N005 N142 {Rc}
Rb002_036 N006 N141 {Rc}
Ra002_037 N005 N146 {Rc}
Rb002_037 N006 N145 {Rc}
Ra002_038 N005 N150 {Rc}
Rb002_038 N006 N149 {Rc}
Ra1002_039 N005 N153 {2*Rc}
Rb1002_039 N006 N154 {2*Rc}
Ra2002_039 N005 N154 {2*Rc}
Rb2002_039 N006 N153 {2*Rc}
Ra002_040 N005 N158 {Rc}
Rb002_040 N006 N157 {Rc}
Ra002_041 N005 N162 {Rc}
Rb002_041 N006 N161 {Rc}
Ra002_042 N005 N166 {Rc}
Rb002_042 N006 N165 {Rc}
Ra1002_043 N005 N169 {2*Rc}
Rb1002_043 N006 N170 {2*Rc}
Ra2002_043 N005 N170 {2*Rc}
Rb2002_043 N006 N169 {2*Rc}
Ra1002_044 N005 N173 {2*Rc}
Rb1002_044 N006 N174 {2*Rc}
Ra2002_044 N005 N174 {2*Rc}
Rb2002_044 N006 N173 {2*Rc}
Ra1002_045 N005 N177 {2*Rc}
Rb1002_045 N006 N178 {2*Rc}
Ra2002_045 N005 N178 {2*Rc}
Rb2002_045 N006 N177 {2*Rc}
Ra002_046 N005 N182 {Rc}
Rb002_046 N006 N181 {Rc}
Ra1002_047 N005 N185 {2*Rc}
Rb1002_047 N006 N186 {2*Rc}
Ra2002_047 N005 N186 {2*Rc}
Rb2002_047 N006 N185 {2*Rc}
Ra1002_048 N005 N189 {2*Rc}
Rb1002_048 N006 N190 {2*Rc}
Ra2002_048 N005 N190 {2*Rc}
Rb2002_048 N006 N189 {2*Rc}
Ra002_049 N005 N194 {Rc}
Rb002_049 N006 N193 {Rc}
Ra002_050 N005 N198 {Rc}
Rb002_050 N006 N197 {Rc}
Ra1002_051 N005 N201 {2*Rc}
Rb1002_051 N006 N202 {2*Rc}
Ra2002_051 N005 N202 {2*Rc}
Rb2002_051 N006 N201 {2*Rc}
Ra002_052 N005 N206 {Rc}
Rb002_052 N006 N205 {Rc}
Ra002_053 N005 N210 {Rc}
Rb002_053 N006 N209 {Rc}
Ra002_054 N005 N214 {Rc}
Rb002_054 N006 N213 {Rc}
Ra1002_055 N005 N217 {2*Rc}
Rb1002_055 N006 N218 {2*Rc}
Ra2002_055 N005 N218 {2*Rc}
Rb2002_055 N006 N217 {2*Rc}
Ra002_056 N005 N222 {Rc}
Rb002_056 N006 N221 {Rc}
Ra1002_057 N005 N225 {2*Rc}
Rb1002_057 N006 N226 {2*Rc}
Ra2002_057 N005 N226 {2*Rc}
Rb2002_057 N006 N225 {2*Rc}
Ra1002_058 N005 N229 {2*Rc}
Rb1002_058 N006 N230 {2*Rc}
Ra2002_058 N005 N230 {2*Rc}
Rb2002_058 N006 N229 {2*Rc}
Ra002_059 N005 N234 {Rc}
Rb002_059 N006 N233 {Rc}
Ra1002_060 N005 N237 {2*Rc}
Rb1002_060 N006 N238 {2*Rc}
Ra2002_060 N005 N238 {2*Rc}
Rb2002_060 N006 N237 {2*Rc}
Ra1003_004 N009 N013 {2*Rc}
Rb1003_004 N010 N014 {2*Rc}
Ra2003_004 N009 N014 {2*Rc}
Rb2003_004 N010 N013 {2*Rc}
Ra003_005 N009 N018 {Rc}
Rb003_005 N010 N017 {Rc}
Ra1003_006 N009 N021 {2*Rc}
Rb1003_006 N010 N022 {2*Rc}
Ra2003_006 N009 N022 {2*Rc}
Rb2003_006 N010 N021 {2*Rc}
Ra1003_007 N009 N025 {2*Rc}
Rb1003_007 N010 N026 {2*Rc}
Ra2003_007 N009 N026 {2*Rc}
Rb2003_007 N010 N025 {2*Rc}
Ra003_008 N009 N030 {Rc}
Rb003_008 N010 N029 {Rc}
Ra003_009 N009 N034 {Rc}
Rb003_009 N010 N033 {Rc}
Ra003_010 N009 N038 {Rc}
Rb003_010 N010 N037 {Rc}
Ra1003_011 N009 N041 {2*Rc}
Rb1003_011 N010 N042 {2*Rc}
Ra2003_011 N009 N042 {2*Rc}
Rb2003_011 N010 N041 {2*Rc}
Ra003_012 N009 N046 {Rc}
Rb003_012 N010 N045 {Rc}
Ra003_013 N009 N050 {Rc}
Rb003_013 N010 N049 {Rc}
Ra1003_014 N009 N053 {2*Rc}
Rb1003_014 N010 N054 {2*Rc}
Ra2003_014 N009 N054 {2*Rc}
Rb2003_014 N010 N053 {2*Rc}
Ra1003_015 N009 N057 {2*Rc}
Rb1003_015 N010 N058 {2*Rc}
Ra2003_015 N009 N058 {2*Rc}
Rb2003_015 N010 N057 {2*Rc}
Ra1003_016 N009 N061 {2*Rc}
Rb1003_016 N010 N062 {2*Rc}
Ra2003_016 N009 N062 {2*Rc}
Rb2003_016 N010 N061 {2*Rc}
Ra1003_017 N009 N065 {2*Rc}
Rb1003_017 N010 N066 {2*Rc}
Ra2003_017 N009 N066 {2*Rc}
Rb2003_017 N010 N065 {2*Rc}
Ra003_018 N009 N070 {Rc}
Rb003_018 N010 N069 {Rc}
Ra1003_019 N009 N073 {2*Rc}
Rb1003_019 N010 N074 {2*Rc}
Ra2003_019 N009 N074 {2*Rc}
Rb2003_019 N010 N073 {2*Rc}
Ra1003_020 N009 N077 {2*Rc}
Rb1003_020 N010 N078 {2*Rc}
Ra2003_020 N009 N078 {2*Rc}
Rb2003_020 N010 N077 {2*Rc}
Ra1003_021 N009 N081 {2*Rc}
Rb1003_021 N010 N082 {2*Rc}
Ra2003_021 N009 N082 {2*Rc}
Rb2003_021 N010 N081 {2*Rc}
Ra1003_022 N009 N085 {2*Rc}
Rb1003_022 N010 N086 {2*Rc}
Ra2003_022 N009 N086 {2*Rc}
Rb2003_022 N010 N085 {2*Rc}
Ra1003_023 N009 N089 {2*Rc}
Rb1003_023 N010 N090 {2*Rc}
Ra2003_023 N009 N090 {2*Rc}
Rb2003_023 N010 N089 {2*Rc}
Ra1003_024 N009 N093 {2*Rc}
Rb1003_024 N010 N094 {2*Rc}
Ra2003_024 N009 N094 {2*Rc}
Rb2003_024 N010 N093 {2*Rc}
Ra003_025 N009 N098 {Rc}
Rb003_025 N010 N097 {Rc}
Ra003_026 N009 N102 {Rc}
Rb003_026 N010 N101 {Rc}
Ra003_027 N009 N106 {Rc}
Rb003_027 N010 N105 {Rc}
Ra003_028 N009 N110 {Rc}
Rb003_028 N010 N109 {Rc}
Ra1003_029 N009 N113 {2*Rc}
Rb1003_029 N010 N114 {2*Rc}
Ra2003_029 N009 N114 {2*Rc}
Rb2003_029 N010 N113 {2*Rc}
Ra1003_030 N009 N117 {2*Rc}
Rb1003_030 N010 N118 {2*Rc}
Ra2003_030 N009 N118 {2*Rc}
Rb2003_030 N010 N117 {2*Rc}
Ra1003_031 N009 N121 {2*Rc}
Rb1003_031 N010 N122 {2*Rc}
Ra2003_031 N009 N122 {2*Rc}
Rb2003_031 N010 N121 {2*Rc}
Ra003_032 N009 N126 {Rc}
Rb003_032 N010 N125 {Rc}
Ra003_033 N009 N130 {Rc}
Rb003_033 N010 N129 {Rc}
Ra003_034 N009 N134 {Rc}
Rb003_034 N010 N133 {Rc}
Ra1003_035 N009 N137 {2*Rc}
Rb1003_035 N010 N138 {2*Rc}
Ra2003_035 N009 N138 {2*Rc}
Rb2003_035 N010 N137 {2*Rc}
Ra1003_036 N009 N141 {2*Rc}
Rb1003_036 N010 N142 {2*Rc}
Ra2003_036 N009 N142 {2*Rc}
Rb2003_036 N010 N141 {2*Rc}
Ra003_037 N009 N146 {Rc}
Rb003_037 N010 N145 {Rc}
Ra003_038 N009 N150 {Rc}
Rb003_038 N010 N149 {Rc}
Ra1003_039 N009 N153 {2*Rc}
Rb1003_039 N010 N154 {2*Rc}
Ra2003_039 N009 N154 {2*Rc}
Rb2003_039 N010 N153 {2*Rc}
Ra003_040 N009 N158 {Rc}
Rb003_040 N010 N157 {Rc}
Ra003_041 N009 N162 {Rc}
Rb003_041 N010 N161 {Rc}
Ra1003_042 N009 N165 {2*Rc}
Rb1003_042 N010 N166 {2*Rc}
Ra2003_042 N009 N166 {2*Rc}
Rb2003_042 N010 N165 {2*Rc}
Ra003_043 N009 N170 {Rc}
Rb003_043 N010 N169 {Rc}
Ra1003_044 N009 N173 {2*Rc}
Rb1003_044 N010 N174 {2*Rc}
Ra2003_044 N009 N174 {2*Rc}
Rb2003_044 N010 N173 {2*Rc}
Ra003_045 N009 N178 {Rc}
Rb003_045 N010 N177 {Rc}
Ra003_046 N009 N182 {Rc}
Rb003_046 N010 N181 {Rc}
Ra003_047 N009 N186 {Rc}
Rb003_047 N010 N185 {Rc}
Ra003_048 N009 N190 {Rc}
Rb003_048 N010 N189 {Rc}
Ra003_049 N009 N194 {Rc}
Rb003_049 N010 N193 {Rc}
Ra003_050 N009 N198 {Rc}
Rb003_050 N010 N197 {Rc}
Ra003_051 N009 N202 {Rc}
Rb003_051 N010 N201 {Rc}
Ra1003_052 N009 N205 {2*Rc}
Rb1003_052 N010 N206 {2*Rc}
Ra2003_052 N009 N206 {2*Rc}
Rb2003_052 N010 N205 {2*Rc}
Ra1003_053 N009 N209 {2*Rc}
Rb1003_053 N010 N210 {2*Rc}
Ra2003_053 N009 N210 {2*Rc}
Rb2003_053 N010 N209 {2*Rc}
Ra1003_054 N009 N213 {2*Rc}
Rb1003_054 N010 N214 {2*Rc}
Ra2003_054 N009 N214 {2*Rc}
Rb2003_054 N010 N213 {2*Rc}
Ra1003_055 N009 N217 {2*Rc}
Rb1003_055 N010 N218 {2*Rc}
Ra2003_055 N009 N218 {2*Rc}
Rb2003_055 N010 N217 {2*Rc}
Ra1003_056 N009 N221 {2*Rc}
Rb1003_056 N010 N222 {2*Rc}
Ra2003_056 N009 N222 {2*Rc}
Rb2003_056 N010 N221 {2*Rc}
Ra1003_057 N009 N225 {2*Rc}
Rb1003_057 N010 N226 {2*Rc}
Ra2003_057 N009 N226 {2*Rc}
Rb2003_057 N010 N225 {2*Rc}
Ra003_058 N009 N230 {Rc}
Rb003_058 N010 N229 {Rc}
Ra003_059 N009 N234 {Rc}
Rb003_059 N010 N233 {Rc}
Ra003_060 N009 N238 {Rc}
Rb003_060 N010 N237 {Rc}
Ra004_005 N013 N018 {Rc}
Rb004_005 N014 N017 {Rc}
Ra004_006 N013 N022 {Rc}
Rb004_006 N014 N021 {Rc}
Ra004_007 N013 N026 {Rc}
Rb004_007 N014 N025 {Rc}
Ra1004_008 N013 N029 {2*Rc}
Rb1004_008 N014 N030 {2*Rc}
Ra2004_008 N013 N030 {2*Rc}
Rb2004_008 N014 N029 {2*Rc}
Ra004_009 N013 N034 {Rc}
Rb004_009 N014 N033 {Rc}
Ra1004_010 N013 N037 {2*Rc}
Rb1004_010 N014 N038 {2*Rc}
Ra2004_010 N013 N038 {2*Rc}
Rb2004_010 N014 N037 {2*Rc}
Ra1004_011 N013 N041 {2*Rc}
Rb1004_011 N014 N042 {2*Rc}
Ra2004_011 N013 N042 {2*Rc}
Rb2004_011 N014 N041 {2*Rc}
Ra1004_012 N013 N045 {2*Rc}
Rb1004_012 N014 N046 {2*Rc}
Ra2004_012 N013 N046 {2*Rc}
Rb2004_012 N014 N045 {2*Rc}
Ra004_013 N013 N050 {Rc}
Rb004_013 N014 N049 {Rc}
Ra004_014 N013 N054 {Rc}
Rb004_014 N014 N053 {Rc}
Ra004_015 N013 N058 {Rc}
Rb004_015 N014 N057 {Rc}
Ra004_016 N013 N062 {Rc}
Rb004_016 N014 N061 {Rc}
Ra1004_017 N013 N065 {2*Rc}
Rb1004_017 N014 N066 {2*Rc}
Ra2004_017 N013 N066 {2*Rc}
Rb2004_017 N014 N065 {2*Rc}
Ra004_018 N013 N070 {Rc}
Rb004_018 N014 N069 {Rc}
Ra1004_019 N013 N073 {2*Rc}
Rb1004_019 N014 N074 {2*Rc}
Ra2004_019 N013 N074 {2*Rc}
Rb2004_019 N014 N073 {2*Rc}
Ra1004_020 N013 N077 {2*Rc}
Rb1004_020 N014 N078 {2*Rc}
Ra2004_020 N013 N078 {2*Rc}
Rb2004_020 N014 N077 {2*Rc}
Ra004_021 N013 N082 {Rc}
Rb004_021 N014 N081 {Rc}
Ra004_022 N013 N086 {Rc}
Rb004_022 N014 N085 {Rc}
Ra1004_023 N013 N089 {2*Rc}
Rb1004_023 N014 N090 {2*Rc}
Ra2004_023 N013 N090 {2*Rc}
Rb2004_023 N014 N089 {2*Rc}
Ra004_024 N013 N094 {Rc}
Rb004_024 N014 N093 {Rc}
Ra004_025 N013 N098 {Rc}
Rb004_025 N014 N097 {Rc}
Ra004_026 N013 N102 {Rc}
Rb004_026 N014 N101 {Rc}
Ra004_027 N013 N106 {Rc}
Rb004_027 N014 N105 {Rc}
Ra1004_028 N013 N109 {2*Rc}
Rb1004_028 N014 N110 {2*Rc}
Ra2004_028 N013 N110 {2*Rc}
Rb2004_028 N014 N109 {2*Rc}
Ra1004_029 N013 N113 {2*Rc}
Rb1004_029 N014 N114 {2*Rc}
Ra2004_029 N013 N114 {2*Rc}
Rb2004_029 N014 N113 {2*Rc}
Ra004_030 N013 N118 {Rc}
Rb004_030 N014 N117 {Rc}
Ra004_031 N013 N122 {Rc}
Rb004_031 N014 N121 {Rc}
Ra1004_032 N013 N125 {2*Rc}
Rb1004_032 N014 N126 {2*Rc}
Ra2004_032 N013 N126 {2*Rc}
Rb2004_032 N014 N125 {2*Rc}
Ra004_033 N013 N130 {Rc}
Rb004_033 N014 N129 {Rc}
Ra004_034 N013 N134 {Rc}
Rb004_034 N014 N133 {Rc}
Ra1004_035 N013 N137 {2*Rc}
Rb1004_035 N014 N138 {2*Rc}
Ra2004_035 N013 N138 {2*Rc}
Rb2004_035 N014 N137 {2*Rc}
Ra1004_036 N013 N141 {2*Rc}
Rb1004_036 N014 N142 {2*Rc}
Ra2004_036 N013 N142 {2*Rc}
Rb2004_036 N014 N141 {2*Rc}
Ra004_037 N013 N146 {Rc}
Rb004_037 N014 N145 {Rc}
Ra004_038 N013 N150 {Rc}
Rb004_038 N014 N149 {Rc}
Ra004_039 N013 N154 {Rc}
Rb004_039 N014 N153 {Rc}
Ra1004_040 N013 N157 {2*Rc}
Rb1004_040 N014 N158 {2*Rc}
Ra2004_040 N013 N158 {2*Rc}
Rb2004_040 N014 N157 {2*Rc}
Ra004_041 N013 N162 {Rc}
Rb004_041 N014 N161 {Rc}
Ra1004_042 N013 N165 {2*Rc}
Rb1004_042 N014 N166 {2*Rc}
Ra2004_042 N013 N166 {2*Rc}
Rb2004_042 N014 N165 {2*Rc}
Ra004_043 N013 N170 {Rc}
Rb004_043 N014 N169 {Rc}
Ra1004_044 N013 N173 {2*Rc}
Rb1004_044 N014 N174 {2*Rc}
Ra2004_044 N013 N174 {2*Rc}
Rb2004_044 N014 N173 {2*Rc}