
.param Rc 200
.params C0=1.5915e-10 L0=1.5915e-10 R0=1e-09
.params omegaPump=2*(2*pi)*1000000000 G0=0.395 dG=0 Tramp=1e-06 Vn=3.1623e-06
.model idealDiode D(Ron=0.0 Roff=1Gig Vfwd=0.01)
L001 N003 N001 {L0} Rser=0 Rpar=1e12
C001 N001 N002 {C0} Rser=0 Rpar=1e12 RLShunt=0
R001 0 N002 1e-09
Df001 N001 N002 idealDiode
Dr001 N002 N001 idealDiode
Cp001 N001 N002 Q=0.395*{C0}*cos({omegaPump}*time)*x
L002 N007 N005 {L0} Rser=0 Rpar=1e12
C002 N005 N006 {C0} Rser=0 Rpar=1e12 RLShunt=0
R002 N004 N006 1e-09
Df002 N005 N006 idealDiode
Dr002 N006 N005 idealDiode
Cp002 N005 N006 Q=0.395*{C0}*cos({omegaPump}*time)*x
L003 N011 N009 {L0} Rser=0 Rpar=1e12
C003 N009 N010 {C0} Rser=0 Rpar=1e12 RLShunt=0
R003 N008 N010 1e-09
Df003 N009 N010 idealDiode
Dr003 N010 N009 idealDiode
Cp003 N009 N010 Q=0.395*{C0}*cos({omegaPump}*time)*x
L004 N015 N013 {L0} Rser=0 Rpar=1e12
C004 N013 N014 {C0} Rser=0 Rpar=1e12 RLShunt=0
R004 N012 N014 1e-09
Df004 N013 N014 idealDiode
Dr004 N014 N013 idealDiode
Cp004 N013 N014 Q=0.395*{C0}*cos({omegaPump}*time)*x
L005 N019 N017 {L0} Rser=0 Rpar=1e12
C005 N017 N018 {C0} Rser=0 Rpar=1e12 RLShunt=0
R005 N016 N018 1e-09
Df005 N017 N018 idealDiode
Dr005 N018 N017 idealDiode
Cp005 N017 N018 Q=0.395*{C0}*cos({omegaPump}*time)*x
L006 N023 N021 {L0} Rser=0 Rpar=1e12
C006 N021 N022 {C0} Rser=0 Rpar=1e12 RLShunt=0
R006 N020 N022 1e-09
Df006 N021 N022 idealDiode
Dr006 N022 N021 idealDiode
Cp006 N021 N022 Q=0.395*{C0}*cos({omegaPump}*time)*x
L007 N027 N025 {L0} Rser=0 Rpar=1e12
C007 N025 N026 {C0} Rser=0 Rpar=1e12 RLShunt=0
R007 N024 N026 1e-09
Df007 N025 N026 idealDiode
Dr007 N026 N025 idealDiode
Cp007 N025 N026 Q=0.395*{C0}*cos({omegaPump}*time)*x
L008 N031 N029 {L0} Rser=0 Rpar=1e12
C008 N029 N030 {C0} Rser=0 Rpar=1e12 RLShunt=0
R008 N028 N030 1e-09
Df008 N029 N030 idealDiode
Dr008 N030 N029 idealDiode
Cp008 N029 N030 Q=0.395*{C0}*cos({omegaPump}*time)*x
L009 N035 N033 {L0} Rser=0 Rpar=1e12
C009 N033 N034 {C0} Rser=0 Rpar=1e12 RLShunt=0
R009 N032 N034 1e-09
Df009 N033 N034 idealDiode
Dr009 N034 N033 idealDiode
Cp009 N033 N034 Q=0.395*{C0}*cos({omegaPump}*time)*x
L010 N039 N037 {L0} Rser=0 Rpar=1e12
C010 N037 N038 {C0} Rser=0 Rpar=1e12 RLShunt=0
R010 N036 N038 1e-09
Df010 N037 N038 idealDiode
Dr010 N038 N037 idealDiode
Cp010 N037 N038 Q=0.395*{C0}*cos({omegaPump}*time)*x
L011 N043 N041 {L0} Rser=0 Rpar=1e12
C011 N041 N042 {C0} Rser=0 Rpar=1e12 RLShunt=0
R011 N040 N042 1e-09
Df011 N041 N042 idealDiode
Dr011 N042 N041 idealDiode
Cp011 N041 N042 Q=0.395*{C0}*cos({omegaPump}*time)*x
L012 N047 N045 {L0} Rser=0 Rpar=1e12
C012 N045 N046 {C0} Rser=0 Rpar=1e12 RLShunt=0
R012 N044 N046 1e-09
Df012 N045 N046 idealDiode
Dr012 N046 N045 idealDiode
Cp012 N045 N046 Q=0.395*{C0}*cos({omegaPump}*time)*x
L013 N051 N049 {L0} Rser=0 Rpar=1e12
C013 N049 N050 {C0} Rser=0 Rpar=1e12 RLShunt=0
R013 N048 N050 1e-09
Df013 N049 N050 idealDiode
Dr013 N050 N049 idealDiode
Cp013 N049 N050 Q=0.395*{C0}*cos({omegaPump}*time)*x
L014 N055 N053 {L0} Rser=0 Rpar=1e12
C014 N053 N054 {C0} Rser=0 Rpar=1e12 RLShunt=0
R014 N052 N054 1e-09
Df014 N053 N054 idealDiode
Dr014 N054 N053 idealDiode
Cp014 N053 N054 Q=0.395*{C0}*cos({omegaPump}*time)*x
L015 N059 N057 {L0} Rser=0 Rpar=1e12
C015 N057 N058 {C0} Rser=0 Rpar=1e12 RLShunt=0
R015 N056 N058 1e-09
Df015 N057 N058 idealDiode
Dr015 N058 N057 idealDiode
Cp015 N057 N058 Q=0.395*{C0}*cos({omegaPump}*time)*x
L016 N063 N061 {L0} Rser=0 Rpar=1e12
C016 N061 N062 {C0} Rser=0 Rpar=1e12 RLShunt=0
R016 N060 N062 1e-09
Df016 N061 N062 idealDiode
Dr016 N062 N061 idealDiode
Cp016 N061 N062 Q=0.395*{C0}*cos({omegaPump}*time)*x
L017 N067 N065 {L0} Rser=0 Rpar=1e12
C017 N065 N066 {C0} Rser=0 Rpar=1e12 RLShunt=0
R017 N064 N066 1e-09
Df017 N065 N066 idealDiode
Dr017 N066 N065 idealDiode
Cp017 N065 N066 Q=0.395*{C0}*cos({omegaPump}*time)*x
L018 N071 N069 {L0} Rser=0 Rpar=1e12
C018 N069 N070 {C0} Rser=0 Rpar=1e12 RLShunt=0
R018 N068 N070 1e-09
Df018 N069 N070 idealDiode
Dr018 N070 N069 idealDiode
Cp018 N069 N070 Q=0.395*{C0}*cos({omegaPump}*time)*x
L019 N075 N073 {L0} Rser=0 Rpar=1e12
C019 N073 N074 {C0} Rser=0 Rpar=1e12 RLShunt=0
R019 N072 N074 1e-09
Df019 N073 N074 idealDiode
Dr019 N074 N073 idealDiode
Cp019 N073 N074 Q=0.395*{C0}*cos({omegaPump}*time)*x
L020 N079 N077 {L0} Rser=0 Rpar=1e12
C020 N077 N078 {C0} Rser=0 Rpar=1e12 RLShunt=0
R020 N076 N078 1e-09
Df020 N077 N078 idealDiode
Dr020 N078 N077 idealDiode
Cp020 N077 N078 Q=0.395*{C0}*cos({omegaPump}*time)*x
L021 N083 N081 {L0} Rser=0 Rpar=1e12
C021 N081 N082 {C0} Rser=0 Rpar=1e12 RLShunt=0
R021 N080 N082 1e-09
Df021 N081 N082 idealDiode
Dr021 N082 N081 idealDiode
Cp021 N081 N082 Q=0.395*{C0}*cos({omegaPump}*time)*x
L022 N087 N085 {L0} Rser=0 Rpar=1e12
C022 N085 N086 {C0} Rser=0 Rpar=1e12 RLShunt=0
R022 N084 N086 1e-09
Df022 N085 N086 idealDiode
Dr022 N086 N085 idealDiode
Cp022 N085 N086 Q=0.395*{C0}*cos({omegaPump}*time)*x
L023 N091 N089 {L0} Rser=0 Rpar=1e12
C023 N089 N090 {C0} Rser=0 Rpar=1e12 RLShunt=0
R023 N088 N090 1e-09
Df023 N089 N090 idealDiode
Dr023 N090 N089 idealDiode
Cp023 N089 N090 Q=0.395*{C0}*cos({omegaPump}*time)*x
L024 N095 N093 {L0} Rser=0 Rpar=1e12
C024 N093 N094 {C0} Rser=0 Rpar=1e12 RLShunt=0
R024 N092 N094 1e-09
Df024 N093 N094 idealDiode
Dr024 N094 N093 idealDiode
Cp024 N093 N094 Q=0.395*{C0}*cos({omegaPump}*time)*x
L025 N099 N097 {L0} Rser=0 Rpar=1e12
C025 N097 N098 {C0} Rser=0 Rpar=1e12 RLShunt=0
R025 N096 N098 1e-09
Df025 N097 N098 idealDiode
Dr025 N098 N097 idealDiode
Cp025 N097 N098 Q=0.395*{C0}*cos({omegaPump}*time)*x
L026 N103 N101 {L0} Rser=0 Rpar=1e12
C026 N101 N102 {C0} Rser=0 Rpar=1e12 RLShunt=0
R026 N100 N102 1e-09
Df026 N101 N102 idealDiode
Dr026 N102 N101 idealDiode
Cp026 N101 N102 Q=0.395*{C0}*cos({omegaPump}*time)*x
L027 N107 N105 {L0} Rser=0 Rpar=1e12
C027 N105 N106 {C0} Rser=0 Rpar=1e12 RLShunt=0
R027 N104 N106 1e-09
Df027 N105 N106 idealDiode
Dr027 N106 N105 idealDiode
Cp027 N105 N106 Q=0.395*{C0}*cos({omegaPump}*time)*x
L028 N111 N109 {L0} Rser=0 Rpar=1e12
C028 N109 N110 {C0} Rser=0 Rpar=1e12 RLShunt=0
R028 N108 N110 1e-09
Df028 N109 N110 idealDiode
Dr028 N110 N109 idealDiode
Cp028 N109 N110 Q=0.395*{C0}*cos({omegaPump}*time)*x
L029 N115 N113 {L0} Rser=0 Rpar=1e12
C029 N113 N114 {C0} Rser=0 Rpar=1e12 RLShunt=0
R029 N112 N114 1e-09
Df029 N113 N114 idealDiode
Dr029 N114 N113 idealDiode
Cp029 N113 N114 Q=0.395*{C0}*cos({omegaPump}*time)*x
L030 N119 N117 {L0} Rser=0 Rpar=1e12
C030 N117 N118 {C0} Rser=0 Rpar=1e12 RLShunt=0
R030 N116 N118 1e-09
Df030 N117 N118 idealDiode
Dr030 N118 N117 idealDiode
Cp030 N117 N118 Q=0.395*{C0}*cos({omegaPump}*time)*x
L031 N123 N121 {L0} Rser=0 Rpar=1e12
C031 N121 N122 {C0} Rser=0 Rpar=1e12 RLShunt=0
R031 N120 N122 1e-09
Df031 N121 N122 idealDiode
Dr031 N122 N121 idealDiode
Cp031 N121 N122 Q=0.395*{C0}*cos({omegaPump}*time)*x
L032 N127 N125 {L0} Rser=0 Rpar=1e12
C032 N125 N126 {C0} Rser=0 Rpar=1e12 RLShunt=0
R032 N124 N126 1e-09
Df032 N125 N126 idealDiode
Dr032 N126 N125 idealDiode
Cp032 N125 N126 Q=0.395*{C0}*cos({omegaPump}*time)*x
L033 N131 N129 {L0} Rser=0 Rpar=1e12
C033 N129 N130 {C0} Rser=0 Rpar=1e12 RLShunt=0
R033 N128 N130 1e-09
Df033 N129 N130 idealDiode
Dr033 N130 N129 idealDiode
Cp033 N129 N130 Q=0.395*{C0}*cos({omegaPump}*time)*x
L034 N135 N133 {L0} Rser=0 Rpar=1e12
C034 N133 N134 {C0} Rser=0 Rpar=1e12 RLShunt=0
R034 N132 N134 1e-09
Df034 N133 N134 idealDiode
Dr034 N134 N133 idealDiode
Cp034 N133 N134 Q=0.395*{C0}*cos({omegaPump}*time)*x
L035 N139 N137 {L0} Rser=0 Rpar=1e12
C035 N137 N138 {C0} Rser=0 Rpar=1e12 RLShunt=0
R035 N136 N138 1e-09
Df035 N137 N138 idealDiode
Dr035 N138 N137 idealDiode
Cp035 N137 N138 Q=0.395*{C0}*cos({omegaPump}*time)*x
L036 N143 N141 {L0} Rser=0 Rpar=1e12
C036 N141 N142 {C0} Rser=0 Rpar=1e12 RLShunt=0
R036 N140 N142 1e-09
Df036 N141 N142 idealDiode
Dr036 N142 N141 idealDiode
Cp036 N141 N142 Q=0.395*{C0}*cos({omegaPump}*time)*x
L037 N147 N145 {L0} Rser=0 Rpar=1e12
C037 N145 N146 {C0} Rser=0 Rpar=1e12 RLShunt=0
R037 N144 N146 1e-09
Df037 N145 N146 idealDiode
Dr037 N146 N145 idealDiode
Cp037 N145 N146 Q=0.395*{C0}*cos({omegaPump}*time)*x
L038 N151 N149 {L0} Rser=0 Rpar=1e12
C038 N149 N150 {C0} Rser=0 Rpar=1e12 RLShunt=0
R038 N148 N150 1e-09
Df038 N149 N150 idealDiode
Dr038 N150 N149 idealDiode
Cp038 N149 N150 Q=0.395*{C0}*cos({omegaPump}*time)*x
L039 N155 N153 {L0} Rser=0 Rpar=1e12
C039 N153 N154 {C0} Rser=0 Rpar=1e12 RLShunt=0
R039 N152 N154 1e-09
Df039 N153 N154 idealDiode
Dr039 N154 N153 idealDiode
Cp039 N153 N154 Q=0.395*{C0}*cos({omegaPump}*time)*x
L040 N159 N157 {L0} Rser=0 Rpar=1e12
C040 N157 N158 {C0} Rser=0 Rpar=1e12 RLShunt=0
R040 N156 N158 1e-09
Df040 N157 N158 idealDiode
Dr040 N158 N157 idealDiode
Cp040 N157 N158 Q=0.395*{C0}*cos({omegaPump}*time)*x
L041 N163 N161 {L0} Rser=0 Rpar=1e12
C041 N161 N162 {C0} Rser=0 Rpar=1e12 RLShunt=0
R041 N160 N162 1e-09
Df041 N161 N162 idealDiode
Dr041 N162 N161 idealDiode
Cp041 N161 N162 Q=0.395*{C0}*cos({omegaPump}*time)*x
L042 N167 N165 {L0} Rser=0 Rpar=1e12
C042 N165 N166 {C0} Rser=0 Rpar=1e12 RLShunt=0
R042 N164 N166 1e-09
Df042 N165 N166 idealDiode
Dr042 N166 N165 idealDiode
Cp042 N165 N166 Q=0.395*{C0}*cos({omegaPump}*time)*x
L043 N171 N169 {L0} Rser=0 Rpar=1e12
C043 N169 N170 {C0} Rser=0 Rpar=1e12 RLShunt=0
R043 N168 N170 1e-09
Df043 N169 N170 idealDiode
Dr043 N170 N169 idealDiode
Cp043 N169 N170 Q=0.395*{C0}*cos({omegaPump}*time)*x
L044 N175 N173 {L0} Rser=0 Rpar=1e12
C044 N173 N174 {C0} Rser=0 Rpar=1e12 RLShunt=0
R044 N172 N174 1e-09
Df044 N173 N174 idealDiode
Dr044 N174 N173 idealDiode
Cp044 N173 N174 Q=0.395*{C0}*cos({omegaPump}*time)*x
L045 N179 N177 {L0} Rser=0 Rpar=1e12
C045 N177 N178 {C0} Rser=0 Rpar=1e12 RLShunt=0
R045 N176 N178 1e-09
Df045 N177 N178 idealDiode
Dr045 N178 N177 idealDiode
Cp045 N177 N178 Q=0.395*{C0}*cos({omegaPump}*time)*x
L046 N183 N181 {L0} Rser=0 Rpar=1e12
C046 N181 N182 {C0} Rser=0 Rpar=1e12 RLShunt=0
R046 N180 N182 1e-09
Df046 N181 N182 idealDiode
Dr046 N182 N181 idealDiode
Cp046 N181 N182 Q=0.395*{C0}*cos({omegaPump}*time)*x
L047 N187 N185 {L0} Rser=0 Rpar=1e12
C047 N185 N186 {C0} Rser=0 Rpar=1e12 RLShunt=0
R047 N184 N186 1e-09
Df047 N185 N186 idealDiode
Dr047 N186 N185 idealDiode
Cp047 N185 N186 Q=0.395*{C0}*cos({omegaPump}*time)*x
L048 N191 N189 {L0} Rser=0 Rpar=1e12
C048 N189 N190 {C0} Rser=0 Rpar=1e12 RLShunt=0
R048 N188 N190 1e-09
Df048 N189 N190 idealDiode
Dr048 N190 N189 idealDiode
Cp048 N189 N190 Q=0.395*{C0}*cos({omegaPump}*time)*x
L049 N195 N193 {L0} Rser=0 Rpar=1e12
C049 N193 N194 {C0} Rser=0 Rpar=1e12 RLShunt=0
R049 N192 N194 1e-09
Df049 N193 N194 idealDiode
Dr049 N194 N193 idealDiode
Cp049 N193 N194 Q=0.395*{C0}*cos({omegaPump}*time)*x
L050 N199 N197 {L0} Rser=0 Rpar=1e12
C050 N197 N198 {C0} Rser=0 Rpar=1e12 RLShunt=0
R050 N196 N198 1e-09
Df050 N197 N198 idealDiode
Dr050 N198 N197 idealDiode
Cp050 N197 N198 Q=0.395*{C0}*cos({omegaPump}*time)*x
L051 N203 N201 {L0} Rser=0 Rpar=1e12
C051 N201 N202 {C0} Rser=0 Rpar=1e12 RLShunt=0
R051 N200 N202 1e-09
Df051 N201 N202 idealDiode
Dr051 N202 N201 idealDiode
Cp051 N201 N202 Q=0.395*{C0}*cos({omegaPump}*time)*x
L052 N207 N205 {L0} Rser=0 Rpar=1e12
C052 N205 N206 {C0} Rser=0 Rpar=1e12 RLShunt=0
R052 N204 N206 1e-09
Df052 N205 N206 idealDiode
Dr052 N206 N205 idealDiode
Cp052 N205 N206 Q=0.395*{C0}*cos({omegaPump}*time)*x
L053 N211 N209 {L0} Rser=0 Rpar=1e12
C053 N209 N210 {C0} Rser=0 Rpar=1e12 RLShunt=0
R053 N208 N210 1e-09
Df053 N209 N210 idealDiode
Dr053 N210 N209 idealDiode
Cp053 N209 N210 Q=0.395*{C0}*cos({omegaPump}*time)*x
L054 N215 N213 {L0} Rser=0 Rpar=1e12
C054 N213 N214 {C0} Rser=0 Rpar=1e12 RLShunt=0
R054 N212 N214 1e-09
Df054 N213 N214 idealDiode
Dr054 N214 N213 idealDiode
Cp054 N213 N214 Q=0.395*{C0}*cos({omegaPump}*time)*x
L055 N219 N217 {L0} Rser=0 Rpar=1e12
C055 N217 N218 {C0} Rser=0 Rpar=1e12 RLShunt=0
R055 N216 N218 1e-09
Df055 N217 N218 idealDiode
Dr055 N218 N217 idealDiode
Cp055 N217 N218 Q=0.395*{C0}*cos({omegaPump}*time)*x
L056 N223 N221 {L0} Rser=0 Rpar=1e12
C056 N221 N222 {C0} Rser=0 Rpar=1e12 RLShunt=0
R056 N220 N222 1e-09
Df056 N221 N222 idealDiode
Dr056 N222 N221 idealDiode
Cp056 N221 N222 Q=0.395*{C0}*cos({omegaPump}*time)*x
L057 N227 N225 {L0} Rser=0 Rpar=1e12
C057 N225 N226 {C0} Rser=0 Rpar=1e12 RLShunt=0
R057 N224 N226 1e-09
Df057 N225 N226 idealDiode
Dr057 N226 N225 idealDiode
Cp057 N225 N226 Q=0.395*{C0}*cos({omegaPump}*time)*x
L058 N231 N229 {L0} Rser=0 Rpar=1e12
C058 N229 N230 {C0} Rser=0 Rpar=1e12 RLShunt=0
R058 N228 N230 1e-09
Df058 N229 N230 idealDiode
Dr058 N230 N229 idealDiode
Cp058 N229 N230 Q=0.395*{C0}*cos({omegaPump}*time)*x
L059 N235 N233 {L0} Rser=0 Rpar=1e12
C059 N233 N234 {C0} Rser=0 Rpar=1e12 RLShunt=0
R059 N232 N234 1e-09
Df059 N233 N234 idealDiode
Dr059 N234 N233 idealDiode
Cp059 N233 N234 Q=0.395*{C0}*cos({omegaPump}*time)*x
L060 N239 N237 {L0} Rser=0 Rpar=1e12
C060 N237 N238 {C0} Rser=0 Rpar=1e12 RLShunt=0
R060 N236 N238 1e-09
Df060 N237 N238 idealDiode
Dr060 N238 N237 idealDiode
Cp060 N237 N238 Q=0.395*{C0}*cos({omegaPump}*time)*x
L061 N243 N241 {L0} Rser=0 Rpar=1e12
C061 N241 N242 {C0} Rser=0 Rpar=1e12 RLShunt=0
R061 N240 N242 1e-09
Df061 N241 N242 idealDiode
Dr061 N242 N241 idealDiode
Cp061 N241 N242 Q=0.395*{C0}*cos({omegaPump}*time)*x
L062 N247 N245 {L0} Rser=0 Rpar=1e12
C062 N245 N246 {C0} Rser=0 Rpar=1e12 RLShunt=0
R062 N244 N246 1e-09
Df062 N245 N246 idealDiode
Dr062 N246 N245 idealDiode
Cp062 N245 N246 Q=0.395*{C0}*cos({omegaPump}*time)*x
L063 N251 N249 {L0} Rser=0 Rpar=1e12
C063 N249 N250 {C0} Rser=0 Rpar=1e12 RLShunt=0
R063 N248 N250 1e-09
Df063 N249 N250 idealDiode
Dr063 N250 N249 idealDiode
Cp063 N249 N250 Q=0.395*{C0}*cos({omegaPump}*time)*x
L064 N255 N253 {L0} Rser=0 Rpar=1e12
C064 N253 N254 {C0} Rser=0 Rpar=1e12 RLShunt=0
R064 N252 N254 1e-09
Df064 N253 N254 idealDiode
Dr064 N254 N253 idealDiode
Cp064 N253 N254 Q=0.395*{C0}*cos({omegaPump}*time)*x
L065 N259 N257 {L0} Rser=0 Rpar=1e12
C065 N257 N258 {C0} Rser=0 Rpar=1e12 RLShunt=0
R065 N256 N258 1e-09
Df065 N257 N258 idealDiode
Dr065 N258 N257 idealDiode
Cp065 N257 N258 Q=0.395*{C0}*cos({omegaPump}*time)*x
L066 N263 N261 {L0} Rser=0 Rpar=1e12
C066 N261 N262 {C0} Rser=0 Rpar=1e12 RLShunt=0
R066 N260 N262 1e-09
Df066 N261 N262 idealDiode
Dr066 N262 N261 idealDiode
Cp066 N261 N262 Q=0.395*{C0}*cos({omegaPump}*time)*x
L067 N267 N265 {L0} Rser=0 Rpar=1e12
C067 N265 N266 {C0} Rser=0 Rpar=1e12 RLShunt=0
R067 N264 N266 1e-09
Df067 N265 N266 idealDiode
Dr067 N266 N265 idealDiode
Cp067 N265 N266 Q=0.395*{C0}*cos({omegaPump}*time)*x
L068 N271 N269 {L0} Rser=0 Rpar=1e12
C068 N269 N270 {C0} Rser=0 Rpar=1e12 RLShunt=0
R068 N268 N270 1e-09
Df068 N269 N270 idealDiode
Dr068 N270 N269 idealDiode
Cp068 N269 N270 Q=0.395*{C0}*cos({omegaPump}*time)*x
L069 N275 N273 {L0} Rser=0 Rpar=1e12
C069 N273 N274 {C0} Rser=0 Rpar=1e12 RLShunt=0
R069 N272 N274 1e-09
Df069 N273 N274 idealDiode
Dr069 N274 N273 idealDiode
Cp069 N273 N274 Q=0.395*{C0}*cos({omegaPump}*time)*x
L070 N279 N277 {L0} Rser=0 Rpar=1e12
C070 N277 N278 {C0} Rser=0 Rpar=1e12 RLShunt=0
R070 N276 N278 1e-09
Df070 N277 N278 idealDiode
Dr070 N278 N277 idealDiode
Cp070 N277 N278 Q=0.395*{C0}*cos({omegaPump}*time)*x
L071 N283 N281 {L0} Rser=0 Rpar=1e12
C071 N281 N282 {C0} Rser=0 Rpar=1e12 RLShunt=0
R071 N280 N282 1e-09
Df071 N281 N282 idealDiode
Dr071 N282 N281 idealDiode
Cp071 N281 N282 Q=0.395*{C0}*cos({omegaPump}*time)*x
L072 N287 N285 {L0} Rser=0 Rpar=1e12
C072 N285 N286 {C0} Rser=0 Rpar=1e12 RLShunt=0
R072 N284 N286 1e-09
Df072 N285 N286 idealDiode
Dr072 N286 N285 idealDiode
Cp072 N285 N286 Q=0.395*{C0}*cos({omegaPump}*time)*x
L073 N291 N289 {L0} Rser=0 Rpar=1e12
C073 N289 N290 {C0} Rser=0 Rpar=1e12 RLShunt=0
R073 N288 N290 1e-09
Df073 N289 N290 idealDiode
Dr073 N290 N289 idealDiode
Cp073 N289 N290 Q=0.395*{C0}*cos({omegaPump}*time)*x
L074 N295 N293 {L0} Rser=0 Rpar=1e12
C074 N293 N294 {C0} Rser=0 Rpar=1e12 RLShunt=0
R074 N292 N294 1e-09
Df074 N293 N294 idealDiode
Dr074 N294 N293 idealDiode
Cp074 N293 N294 Q=0.395*{C0}*cos({omegaPump}*time)*x
L075 N299 N297 {L0} Rser=0 Rpar=1e12
C075 N297 N298 {C0} Rser=0 Rpar=1e12 RLShunt=0
R075 N296 N298 1e-09
Df075 N297 N298 idealDiode
Dr075 N298 N297 idealDiode
Cp075 N297 N298 Q=0.395*{C0}*cos({omegaPump}*time)*x
L076 N303 N301 {L0} Rser=0 Rpar=1e12
C076 N301 N302 {C0} Rser=0 Rpar=1e12 RLShunt=0
R076 N300 N302 1e-09
Df076 N301 N302 idealDiode
Dr076 N302 N301 idealDiode
Cp076 N301 N302 Q=0.395*{C0}*cos({omegaPump}*time)*x
L077 N307 N305 {L0} Rser=0 Rpar=1e12
C077 N305 N306 {C0} Rser=0 Rpar=1e12 RLShunt=0
R077 N304 N306 1e-09
Df077 N305 N306 idealDiode
Dr077 N306 N305 idealDiode
Cp077 N305 N306 Q=0.395*{C0}*cos({omegaPump}*time)*x
L078 N311 N309 {L0} Rser=0 Rpar=1e12
C078 N309 N310 {C0} Rser=0 Rpar=1e12 RLShunt=0
R078 N308 N310 1e-09
Df078 N309 N310 idealDiode
Dr078 N310 N309 idealDiode
Cp078 N309 N310 Q=0.395*{C0}*cos({omegaPump}*time)*x
L079 N315 N313 {L0} Rser=0 Rpar=1e12
C079 N313 N314 {C0} Rser=0 Rpar=1e12 RLShunt=0
R079 0 N314 1e-09
Df079 N313 N314 idealDiode
Dr079 N314 N313 idealDiode
Cp079 N313 N314 Q=0.395*{C0}*cos({omegaPump}*time)*x
L080 N319 N317 {L0} Rser=0 Rpar=1e12
C080 N317 N318 {C0} Rser=0 Rpar=1e12 RLShunt=0
R080 0 N318 1e-09
Df080 N317 N318 idealDiode
Dr080 N318 N317 idealDiode
Cp080 N317 N318 Q=0.395*{C0}*cos({omegaPump}*time)*x
Ra001_002 N001 N006 {Rc}
Rb001_002 N002 N005 {Rc}
Ra1001_003 N001 N009 {2*Rc}
Rb1001_003 N002 N010 {2*Rc}
Ra2001_003 N001 N010 {2*Rc}
Rb2001_003 N002 N009 {2*Rc}
Ra1001_004 N001 N013 {2*Rc}
Rb1001_004 N002 N014 {2*Rc}
Ra2001_004 N001 N014 {2*Rc}
Rb2001_004 N002 N013 {2*Rc}
Ra001_005 N001 N018 {Rc}
Rb001_005 N002 N017 {Rc}
Ra001_006 N001 N022 {Rc}
Rb001_006 N002 N021 {Rc}
Ra1001_007 N001 N025 {2*Rc}
Rb1001_007 N002 N026 {2*Rc}
Ra2001_007 N001 N026 {2*Rc}
Rb2001_007 N002 N025 {2*Rc}
Ra1001_008 N001 N029 {2*Rc}
Rb1001_008 N002 N030 {2*Rc}
Ra2001_008 N001 N030 {2*Rc}
Rb2001_008 N002 N029 {2*Rc}
Ra1001_009 N001 N033 {2*Rc}
Rb1001_009 N002 N034 {2*Rc}
Ra2001_009 N001 N034 {2*Rc}
Rb2001_009 N002 N033 {2*Rc}
Ra001_010 N001 N038 {Rc}
Rb001_010 N002 N037 {Rc}
Ra1001_011 N001 N041 {2*Rc}
Rb1001_011 N002 N042 {2*Rc}
Ra2001_011 N001 N042 {2*Rc}
Rb2001_011 N002 N041 {2*Rc}
Ra1001_012 N001 N045 {2*Rc}
Rb1001_012 N002 N046 {2*Rc}
Ra2001_012 N001 N046 {2*Rc}
Rb2001_012 N002 N045 {2*Rc}
Ra001_013 N001 N050 {Rc}
Rb001_013 N002 N049 {Rc}
Ra1001_014 N001 N053 {2*Rc}
Rb1001_014 N002 N054 {2*Rc}
Ra2001_014 N001 N054 {2*Rc}
Rb2001_014 N002 N053 {2*Rc}
Ra1001_015 N001 N057 {2*Rc}
Rb1001_015 N002 N058 {2*Rc}
Ra2001_015 N001 N058 {2*Rc}
Rb2001_015 N002 N057 {2*Rc}
Ra1001_016 N001 N061 {2*Rc}
Rb1001_016 N002 N062 {2*Rc}
Ra2001_016 N001 N062 {2*Rc}
Rb2001_016 N002 N061 {2*Rc}
Ra001_017 N001 N066 {Rc}
Rb001_017 N002 N065 {Rc}
Ra1001_018 N001 N069 {2*Rc}
Rb1001_018 N002 N070 {2*Rc}
Ra2001_018 N001 N070 {2*Rc}
Rb2001_018 N002 N069 {2*Rc}
Ra1001_019 N001 N073 {2*Rc}
Rb1001_019 N002 N074 {2*Rc}
Ra2001_019 N001 N074 {2*Rc}
Rb2001_019 N002 N073 {2*Rc}
Ra001_020 N001 N078 {Rc}
Rb001_020 N002 N077 {Rc}
Ra001_021 N001 N082 {Rc}
Rb001_021 N002 N081 {Rc}
Ra1001_022 N001 N085 {2*Rc}
Rb1001_022 N002 N086 {2*Rc}
Ra2001_022 N001 N086 {2*Rc}
Rb2001_022 N002 N085 {2*Rc}
Ra001_023 N001 N090 {Rc}
Rb001_023 N002 N089 {Rc}
Ra1001_024 N001 N093 {2*Rc}
Rb1001_024 N002 N094 {2*Rc}
Ra2001_024 N001 N094 {2*Rc}
Rb2001_024 N002 N093 {2*Rc}
Ra1001_025 N001 N097 {2*Rc}
Rb1001_025 N002 N098 {2*Rc}
Ra2001_025 N001 N098 {2*Rc}
Rb2001_025 N002 N097 {2*Rc}
Ra001_026 N001 N102 {Rc}
Rb001_026 N002 N101 {Rc}
Ra001_027 N001 N106 {Rc}
Rb001_027 N002 N105 {Rc}
Ra001_028 N001 N110 {Rc}
Rb001_028 N002 N109 {Rc}
Ra1001_029 N001 N113 {2*Rc}
Rb1001_029 N002 N114 {2*Rc}
Ra2001_029 N001 N114 {2*Rc}
Rb2001_029 N002 N113 {2*Rc}
Ra001_030 N001 N118 {Rc}
Rb001_030 N002 N117 {Rc}
Ra001_031 N001 N122 {Rc}
Rb001_031 N002 N121 {Rc}
Ra001_032 N001 N126 {Rc}
Rb001_032 N002 N125 {Rc}
Ra1001_033 N001 N129 {2*Rc}
Rb1001_033 N002 N130 {2*Rc}
Ra2001_033 N001 N130 {2*Rc}
Rb2001_033 N002 N129 {2*Rc}
Ra1001_034 N001 N133 {2*Rc}
Rb1001_034 N002 N134 {2*Rc}
Ra2001_034 N001 N134 {2*Rc}
Rb2001_034 N002 N133 {2*Rc}
Ra1001_035 N001 N137 {2*Rc}
Rb1001_035 N002 N138 {2*Rc}
Ra2001_035 N001 N138 {2*Rc}
Rb2001_035 N002 N137 {2*Rc}
Ra1001_036 N001 N141 {2*Rc}
Rb1001_036 N002 N142 {2*Rc}
Ra2001_036 N001 N142 {2*Rc}
Rb2001_036 N002 N141 {2*Rc}
Ra001_037 N001 N146 {Rc}
Rb001_037 N002 N145 {Rc}
Ra001_038 N001 N150 {Rc}
Rb001_038 N002 N149 {Rc}
Ra001_039 N001 N154 {Rc}
Rb001_039 N002 N153 {Rc}
Ra001_040 N001 N158 {Rc}
Rb001_040 N002 N157 {Rc}
Ra001_041 N001 N162 {Rc}
Rb001_041 N002 N161 {Rc}
Ra1001_042 N001 N165 {2*Rc}
Rb1001_042 N002 N166 {2*Rc}
Ra2001_042 N001 N166 {2*Rc}
Rb2001_042 N002 N165 {2*Rc}
Ra001_043 N001 N170 {Rc}
Rb001_043 N002 N169 {Rc}
Ra001_044 N001 N174 {Rc}
Rb001_044 N002 N173 {Rc}
Ra001_045 N001 N178 {Rc}
Rb001_045 N002 N177 {Rc}
Ra1001_046 N001 N181 {2*Rc}
Rb1001_046 N002 N182 {2*Rc}
Ra2001_046 N001 N182 {2*Rc}
Rb2001_046 N002 N181 {2*Rc}
Ra1001_047 N001 N185 {2*Rc}
Rb1001_047 N002 N186 {2*Rc}
Ra2001_047 N001 N186 {2*Rc}
Rb2001_047 N002 N185 {2*Rc}
Ra1001_048 N001 N189 {2*Rc}
Rb1001_048 N002 N190 {2*Rc}
Ra2001_048 N001 N190 {2*Rc}
Rb2001_048 N002 N189 {2*Rc}
Ra1001_049 N001 N193 {2*Rc}
Rb1001_049 N002 N194 {2*Rc}
Ra2001_049 N001 N194 {2*Rc}
Rb2001_049 N002 N193 {2*Rc}
Ra1001_050 N001 N197 {2*Rc}
Rb1001_050 N002 N198 {2*Rc}
Ra2001_050 N001 N198 {2*Rc}
Rb2001_050 N002 N197 {2*Rc}
Ra001_051 N001 N202 {Rc}
Rb001_051 N002 N201 {Rc}
Ra001_052 N001 N206 {Rc}
Rb001_052 N002 N205 {Rc}
Ra001_053 N001 N210 {Rc}
Rb001_053 N002 N209 {Rc}
Ra1001_054 N001 N213 {2*Rc}
Rb1001_054 N002 N214 {2*Rc}
Ra2001_054 N001 N214 {2*Rc}
Rb2001_054 N002 N213 {2*Rc}
Ra001_055 N001 N218 {Rc}
Rb001_055 N002 N217 {Rc}
Ra001_056 N001 N222 {Rc}
Rb001_056 N002 N221 {Rc}
Ra1001_057 N001 N225 {2*Rc}
Rb1001_057 N002 N226 {2*Rc}
Ra2001_057 N001 N226 {2*Rc}
Rb2001_057 N002 N225 {2*Rc}
Ra1001_058 N001 N229 {2*Rc}
Rb1001_058 N002 N230 {2*Rc}
Ra2001_058 N001 N230 {2*Rc}
Rb2001_058 N002 N229 {2*Rc}
Ra001_059 N001 N234 {Rc}
Rb001_059 N002 N233 {Rc}
Ra001_060 N001 N238 {Rc}
Rb001_060 N002 N237 {Rc}
Ra1001_061 N001 N241 {2*Rc}
Rb1001_061 N002 N242 {2*Rc}
Ra2001_061 N001 N242 {2*Rc}
Rb2001_061 N002 N241 {2*Rc}
Ra001_062 N001 N246 {Rc}
Rb001_062 N002 N245 {Rc}
Ra001_063 N001 N250 {Rc}
Rb001_063 N002 N249 {Rc}
Ra1001_064 N001 N253 {2*Rc}
Rb1001_064 N002 N254 {2*Rc}
Ra2001_064 N001 N254 {2*Rc}
Rb2001_064 N002 N253 {2*Rc}
Ra1001_065 N001 N257 {2*Rc}
Rb1001_065 N002 N258 {2*Rc}
Ra2001_065 N001 N258 {2*Rc}
Rb2001_065 N002 N257 {2*Rc}
Ra1001_066 N001 N261 {2*Rc}
Rb1001_066 N002 N262 {2*Rc}
Ra2001_066 N001 N262 {2*Rc}
Rb2001_066 N002 N261 {2*Rc}
Ra1001_067 N001 N265 {2*Rc}
Rb1001_067 N002 N266 {2*Rc}
Ra2001_067 N001 N266 {2*Rc}
Rb2001_067 N002 N265 {2*Rc}
Ra001_068 N001 N270 {Rc}
Rb001_068 N002 N269 {Rc}
Ra001_069 N001 N274 {Rc}
Rb001_069 N002 N273 {Rc}
Ra001_070 N001 N278 {Rc}
Rb001_070 N002 N277 {Rc}
Ra001_071 N001 N282 {Rc}
Rb001_071 N002 N281 {Rc}
Ra1001_072 N001 N285 {2*Rc}
Rb1001_072 N002 N286 {2*Rc}
Ra2001_072 N001 N286 {2*Rc}
Rb2001_072 N002 N285 {2*Rc}
Ra1001_073 N001 N289 {2*Rc}
Rb1001_073 N002 N290 {2*Rc}
Ra2001_073 N001 N290 {2*Rc}
Rb2001_073 N002 N289 {2*Rc}
Ra1001_074 N001 N293 {2*Rc}
Rb1001_074 N002 N294 {2*Rc}
Ra2001_074 N001 N294 {2*Rc}
Rb2001_074 N002 N293 {2*Rc}
Ra1001_075 N001 N297 {2*Rc}
Rb1001_075 N002 N298 {2*Rc}
Ra2001_075 N001 N298 {2*Rc}
Rb2001_075 N002 N297 {2*Rc}
Ra001_076 N001 N302 {Rc}
Rb001_076 N002 N301 {Rc}
Ra1001_077 N001 N305 {2*Rc}
Rb1001_077 N002 N306 {2*Rc}
Ra2001_077 N001 N306 {2*Rc}
Rb2001_077 N002 N305 {2*Rc}
Ra1001_078 N001 N309 {2*Rc}
Rb1001_078 N002 N310 {2*Rc}
Ra2001_078 N001 N310 {2*Rc}
Rb2001_078 N002 N309 {2*Rc}
Ra001_079 N001 N314 {Rc}
Rb001_079 N002 N313 {Rc}
Ra001_080 N001 N318 {Rc}
Rb001_080 N002 N317 {Rc}
Ra1002_003 N005 N009 {2*Rc}
Rb1002_003 N006 N010 {2*Rc}
Ra2002_003 N005 N010 {2*Rc}
Rb2002_003 N006 N009 {2*Rc}
Ra002_004 N005 N014 {Rc}
Rb002_004 N006 N013 {Rc}
Ra002_005 N005 N018 {Rc}
Rb002_005 N006 N017 {Rc}
Ra002_006 N005 N022 {Rc}
Rb002_006 N006 N021 {Rc}
Ra002_007 N005 N026 {Rc}
Rb002_007 N006 N025 {Rc}
Ra002_008 N005 N030 {Rc}
Rb002_008 N006 N029 {Rc}
Ra002_009 N005 N034 {Rc}
Rb002_009 N006 N033 {Rc}
Ra1002_010 N005 N037 {2*Rc}
Rb1002_010 N006 N038 {2*Rc}
Ra2002_010 N005 N038 {2*Rc}
Rb2002_010 N006 N037 {2*Rc}
Ra002_011 N005 N042 {Rc}
Rb002_011 N006 N041 {Rc}
Ra1002_012 N005 N045 {2*Rc}
Rb1002_012 N006 N046 {2*Rc}
Ra2002_012 N005 N046 {2*Rc}
Rb2002_012 N006 N045 {2*Rc}
Ra1002_013 N005 N049 {2*Rc}
Rb1002_013 N006 N050 {2*Rc}
Ra2002_013 N005 N050 {2*Rc}
Rb2002_013 N006 N049 {2*Rc}
Ra1002_014 N005 N053 {2*Rc}
Rb1002_014 N006 N054 {2*Rc}
Ra2002_014 N005 N054 {2*Rc}
Rb2002_014 N006 N053 {2*Rc}
Ra002_015 N005 N058 {Rc}
Rb002_015 N006 N057 {Rc}
Ra002_016 N005 N062 {Rc}
Rb002_016 N006 N061 {Rc}
Ra002_017 N005 N066 {Rc}
Rb002_017 N006 N065 {Rc}
Ra002_018 N005 N070 {Rc}
Rb002_018 N006 N069 {Rc}
Ra002_019 N005 N074 {Rc}
Rb002_019 N006 N073 {Rc}
Ra1002_020 N005 N077 {2*Rc}
Rb1002_020 N006 N078 {2*Rc}
Ra2002_020 N005 N078 {2*Rc}
Rb2002_020 N006 N077 {2*Rc}
Ra1002_021 N005 N081 {2*Rc}
Rb1002_021 N006 N082 {2*Rc}
Ra2002_021 N005 N082 {2*Rc}
Rb2002_021 N006 N081 {2*Rc}
Ra002_022 N005 N086 {Rc}
Rb002_022 N006 N085 {Rc}
Ra002_023 N005 N090 {Rc}
Rb002_023 N006 N089 {Rc}
Ra1002_024 N005 N093 {2*Rc}
Rb1002_024 N006 N094 {2*Rc}
Ra2002_024 N005 N094 {2*Rc}
Rb2002_024 N006 N093 {2*Rc}
Ra1002_025 N005 N097 {2*Rc}
Rb1002_025 N006 N098 {2*Rc}
Ra2002_025 N005 N098 {2*Rc}
Rb2002_025 N006 N097 {2*Rc}
Ra1002_026 N005 N101 {2*Rc}
Rb1002_026 N006 N102 {2*Rc}
Ra2002_026 N005 N102 {2*Rc}
Rb2002_026 N006 N101 {2*Rc}
Ra1002_027 N005 N105 {2*Rc}
Rb1002_027 N006 N106 {2*Rc}
Ra2002_027 N005 N106 {2*Rc}
Rb2002_027 N006 N105 {2*Rc}
Ra1002_028 N005 N109 {2*Rc}
Rb1002_028 N006 N110 {2*Rc}
Ra2002_028 N005 N110 {2*Rc}
Rb2002_028 N006 N109 {2*Rc}
Ra1002_029 N005 N113 {2*Rc}
Rb1002_029 N006 N114 {2*Rc}
Ra2002_029 N005 N114 {2*Rc}
Rb2002_029 N006 N113 {2*Rc}
Ra002_030 N005 N118 {Rc}
Rb002_030 N006 N117 {Rc}
Ra002_031 N005 N122 {Rc}
Rb002_031 N006 N121 {Rc}
Ra002_032 N005 N126 {Rc}
Rb002_032 N006 N125 {Rc}
Ra002_033 N005 N130 {Rc}
Rb002_033 N006 N129 {Rc}
Ra1002_034 N005 N133 {2*Rc}
Rb1002_034 N006 N134 {2*Rc}
Ra2002_034 N005 N134 {2*Rc}
Rb2002_034 N006 N133 {2*Rc}
Ra002_035 N005 N138 {Rc}
Rb002_035 N006 N137 {Rc}
Ra1002_036 N005 N141 {2*Rc}
Rb1002_036 N006 N142 {2*Rc}
Ra2002_036 N005 N142 {2*Rc}
Rb2002_036 N006 N141 {2*Rc}
Ra1002_037 N005 N145 {2*Rc}
Rb1002_037 N006 N146 {2*Rc}
Ra2002_037 N005 N146 {2*Rc}
Rb2002_037 N006 N145 {2*Rc}
Ra1002_038 N005 N149 {2*Rc}
Rb1002_038 N006 N150 {2*Rc}
Ra2002_038 N005 N150 {2*Rc}
Rb2002_038 N006 N149 {2*Rc}
Ra1002_039 N005 N153 {2*Rc}
Rb1002_039 N006 N154 {2*Rc}
Ra2002_039 N005 N154 {2*Rc}
Rb2002_039 N006 N153 {2*Rc}
Ra002_040 N005 N158 {Rc}
Rb002_040 N006 N157 {Rc}
Ra1002_041 N005 N161 {2*Rc}
Rb1002_041 N006 N162 {2*Rc}
Ra2002_041 N005 N162 {2*Rc}
Rb2002_041 N006 N161 {2*Rc}
Ra002_042 N005 N166 {Rc}
Rb002_042 N006 N165 {Rc}
Ra1002_043 N005 N169 {2*Rc}
Rb1002_043 N006 N170 {2*Rc}
Ra2002_043 N005 N170 {2*Rc}
Rb2002_043 N006 N169 {2*Rc}
Ra002_044 N005 N174 {Rc}
Rb002_044 N006 N173 {Rc}
Ra1002_045 N005 N177 {2*Rc}
Rb1002_045 N006 N178 {2*Rc}
Ra2002_045 N005 N178 {2*Rc}
Rb2002_045 N006 N177 {2*Rc}
Ra002_046 N005 N182 {Rc}
Rb002_046 N006 N181 {Rc}
Ra1002_047 N005 N185 {2*Rc}
Rb1002_047 N006 N186 {2*Rc}
Ra2002_047 N005 N186 {2*Rc}
Rb2002_047 N006 N185 {2*Rc}
Ra1002_048 N005 N189 {2*Rc}
Rb1002_048 N006 N190 {2*Rc}
Ra2002_048 N005 N190 {2*Rc}
Rb2002_048 N006 N189 {2*Rc}
Ra002_049 N005 N194 {Rc}
Rb002_049 N006 N193 {Rc}
Ra002_050 N005 N198 {Rc}
Rb002_050 N006 N197 {Rc}
Ra002_051 N005 N202 {Rc}
Rb002_051 N006 N201 {Rc}
Ra1002_052 N005 N205 {2*Rc}
Rb1002_052 N006 N206 {2*Rc}
Ra2002_052 N005 N206 {2*Rc}
Rb2002_052 N006 N205 {2*Rc}
Ra002_053 N005 N210 {Rc}
Rb002_053 N006 N209 {Rc}
Ra1002_054 N005 N213 {2*Rc}
Rb1002_054 N006 N214 {2*Rc}
Ra2002_054 N005 N214 {2*Rc}
Rb2002_054 N006 N213 {2*Rc}
Ra002_055 N005 N218 {Rc}
Rb002_055 N006 N217 {Rc}
Ra002_056 N005 N222 {Rc}
Rb002_056 N006 N221 {Rc}
Ra002_057 N005 N226 {Rc}
Rb002_057 N006 N225 {Rc}
Ra002_058 N005 N230 {Rc}
Rb002_058 N006 N229 {Rc}
Ra002_059 N005 N234 {Rc}
Rb002_059 N006 N233 {Rc}
Ra002_060 N005 N238 {Rc}
Rb002_060 N006 N237 {Rc}
Ra1002_061 N005 N241 {2*Rc}
Rb1002_061 N006 N242 {2*Rc}
Ra2002_061 N005 N242 {2*Rc}
Rb2002_061 N006 N241 {2*Rc}
Ra002_062 N005 N246 {Rc}
Rb002_062 N006 N245 {Rc}
Ra002_063 N005 N250 {Rc}
Rb002_063 N006 N249 {Rc}
Ra1002_064 N005 N253 {2*Rc}
Rb1002_064 N006 N254 {2*Rc}
Ra2002_064 N005 N254 {2*Rc}
Rb2002_064 N006 N253 {2*Rc}
Ra1002_065 N005 N257 {2*Rc}
Rb1002_065 N006 N258 {2*Rc}
Ra2002_065 N005 N258 {2*Rc}
Rb2002_065 N006 N257 {2*Rc}
Ra1002_066 N005 N261 {2*Rc}
Rb1002_066 N006 N262 {2*Rc}
Ra2002_066 N005 N262 {2*Rc}
Rb2002_066 N006 N261 {2*Rc}
Ra1002_067 N005 N265 {2*Rc}
Rb1002_067 N006 N266 {2*Rc}
Ra2002_067 N005 N266 {2*Rc}
Rb2002_067 N006 N265 {2*Rc}
Ra1002_068 N005 N269 {2*Rc}
Rb1002_068 N006 N270 {2*Rc}
Ra2002_068 N005 N270 {2*Rc}
Rb2002_068 N006 N269 {2*Rc}
Ra1002_069 N005 N273 {2*Rc}
Rb1002_069 N006 N274 {2*Rc}
Ra2002_069 N005 N274 {2*Rc}
Rb2002_069 N006 N273 {2*Rc}
Ra002_070 N005 N278 {Rc}
Rb002_070 N006 N277 {Rc}
Ra002_071 N005 N282 {Rc}
Rb002_071 N006 N281 {Rc}
Ra002_072 N005 N286 {Rc}
Rb002_072 N006 N285 {Rc}
Ra002_073 N005 N290 {Rc}
Rb002_073 N006 N289 {Rc}
Ra1002_074 N005 N293 {2*Rc}
Rb1002_074 N006 N294 {2*Rc}
Ra2002_074 N005 N294 {2*Rc}
Rb2002_074 N006 N293 {2*Rc}
Ra1002_075 N005 N297 {2*Rc}
Rb1002_075 N006 N298 {2*Rc}
Ra2002_075 N005 N298 {2*Rc}
Rb2002_075 N006 N297 {2*Rc}
Ra002_076 N005 N302 {Rc}
Rb002_076 N006 N301 {Rc}
Ra002_077 N005 N306 {Rc}
Rb002_077 N006 N305 {Rc}
Ra1002_078 N005 N309 {2*Rc}
Rb1002_078 N006 N310 {2*Rc}
Ra2002_078 N005 N310 {2*Rc}
Rb2002_078 N006 N309 {2*Rc}
Ra002_079 N005 N314 {Rc}
Rb002_079 N006 N313 {Rc}
Ra002_080 N005 N318 {Rc}
Rb002_080 N006 N317 {Rc}
Ra1003_004 N009 N013 {2*Rc}
Rb1003_004 N010 N014 {2*Rc}
Ra2003_004 N009 N014 {2*Rc}
Rb2003_004 N010 N013 {2*Rc}
Ra003_005 N009 N018 {Rc}
Rb003_005 N010 N017 {Rc}
Ra1003_006 N009 N021 {2*Rc}
Rb1003_006 N010 N022 {2*Rc}
Ra2003_006 N009 N022 {2*Rc}
Rb2003_006 N010 N021 {2*Rc}
Ra1003_007 N009 N025 {2*Rc}
Rb1003_007 N010 N026 {2*Rc}
Ra2003_007 N009 N026 {2*Rc}